
     RDKit          3D

 35 36  0  0  0  0  0  0  0  0999 V2000
   -6.8028   32.0995  -32.6646 C   0  0  0  0  0  0  0  0  0  0  0  0
   -6.3939   31.1619  -31.5570 C   0  0  0  0  0  0  0  0  0  0  0  0
   -6.3627   29.7460  -32.0693 C   0  0  0  0  0  0  0  0  0  0  0  0
   -6.6618   29.5086  -33.2895 O   0  0  0  0  0  0  0  0  0  0  0  0
   -6.0071   28.6887  -31.2124 N   0  0  0  0  0  0  0  0  0  0  0  0
   -5.9542   27.3281  -31.6190 C   0  0  0  0  0  0  0  0  0  0  0  0
   -5.6004   26.3188  -30.7475 C   0  0  0  0  0  0  0  0  0  0  0  0
   -5.5595   24.9920  -31.1838 C   0  0  0  0  0  0  0  0  0  0  0  0
   -5.1966   23.9312  -30.3015 N   0  0  0  0  0  0  0  0  0  0  0  0
   -3.8613   23.5525  -30.1827 C   0  0  0  0  0  0  0  0  0  0  0  0
   -3.0384   24.2186  -30.9012 O   0  0  0  0  0  0  0  0  0  0  0  0
   -3.2906   22.5184  -29.3616 C   0  0  0  0  0  0  0  0  0  0  0  0
   -1.8941   22.4543  -29.3165 C   0  0  0  0  0  0  0  0  0  0  0  0
   -0.8789   23.5771  -30.1965 Cl  0  0  0  0  0  0  0  0  0  0  0  0
   -1.2369   21.4908  -28.5643 C   0  0  0  0  0  0  0  0  0  0  0  0
   -1.9136   20.5476  -27.8235 C   0  0  0  0  0  0  0  0  0  0  0  0
   -3.2882   20.6051  -27.8639 C   0  0  0  0  0  0  0  0  0  0  0  0
   -3.9595   21.5801  -28.6253 C   0  0  0  0  0  0  0  0  0  0  0  0
   -5.6828   21.5136  -28.5913 Cl  0  0  0  0  0  0  0  0  0  0  0  0
   -5.8823   24.7175  -32.5091 C   0  0  0  0  0  0  0  0  0  0  0  0
   -6.2355   25.7723  -33.3581 C   0  0  0  0  0  0  0  0  0  0  0  0
   -6.2620   27.0366  -32.8958 N   0  0  0  0  0  0  0  0  0  0  0  0
   -6.5989   31.5612  -33.6327 H   0  0  0  0  0  0  0  0  0  0  0  0
   -7.8750   32.3672  -32.5749 H   0  0  0  0  0  0  0  0  0  0  0  0
   -6.2017   33.0102  -32.5969 H   0  0  0  0  0  0  0  0  0  0  0  0
   -7.0850   31.2176  -30.6881 H   0  0  0  0  0  0  0  0  0  0  0  0
   -5.3384   31.3835  -31.2956 H   0  0  0  0  0  0  0  0  0  0  0  0
   -5.7678   28.9302  -30.2129 H   0  0  0  0  0  0  0  0  0  0  0  0
   -5.3574   26.5664  -29.7318 H   0  0  0  0  0  0  0  0  0  0  0  0
   -5.9319   23.4781  -29.7685 H   0  0  0  0  0  0  0  0  0  0  0  0
   -0.1691   21.4601  -28.5436 H   0  0  0  0  0  0  0  0  0  0  0  0
   -1.4391   19.7855  -27.2281 H   0  0  0  0  0  0  0  0  0  0  0  0
   -3.8365   19.8750  -27.2904 H   0  0  0  0  0  0  0  0  0  0  0  0
   -5.8545   23.6879  -32.8624 H   0  0  0  0  0  0  0  0  0  0  0  0
   -6.4782   25.5114  -34.3790 H   0  0  0  0  0  0  0  0  0  0  0  0
  1  2  1  0
  2  3  1  0
  3  4  2  0
  3  5  1  0
  5  6  1  0
  6  7  2  0
  7  8  1  0
  8  9  1  0
  9 10  1  0
 10 11  2  0
 10 12  1  0
 12 13  2  0
 13 14  1  0
 13 15  1  0
 15 16  2  0
 16 17  1  0
 17 18  2  0
 18 19  1  0
  8 20  2  0
 20 21  1  0
 21 22  2  0
 22  6  1  0
 18 12  1  0
  1 23  1  0
  1 24  1  0
  1 25  1  0
  2 26  1  0
  2 27  1  0
  5 28  1  0
  7 29  1  0
  9 30  1  0
 15 31  1  0
 16 32  1  0
 17 33  1  0
 20 34  1  0
 21 35  1  0
M  END
$$$$
