
     RDKit          3D

 35 36  0  0  0  0  0  0  0  0999 V2000
   -6.2983   31.1112  -29.3385 C   0  0  0  0  0  0  0  0  0  0  0  0
   -6.8474   30.5229  -30.6085 C   0  0  0  0  0  0  0  0  0  0  0  0
   -6.2403   29.1711  -30.8671 C   0  0  0  0  0  0  0  0  0  0  0  0
   -5.4148   28.7687  -30.0263 O   0  0  0  0  0  0  0  0  0  0  0  0
   -6.6080   28.4256  -32.0096 N   0  0  0  0  0  0  0  0  0  0  0  0
   -6.1227   27.1592  -32.3705 C   0  0  0  0  0  0  0  0  0  0  0  0
   -5.1992   26.4195  -31.6706 C   0  0  0  0  0  0  0  0  0  0  0  0
   -4.7763   25.1766  -32.1008 C   0  0  0  0  0  0  0  0  0  0  0  0
   -3.8042   24.4488  -31.3217 N   0  0  0  0  0  0  0  0  0  0  0  0
   -4.1989   23.5584  -30.2989 C   0  0  0  0  0  0  0  0  0  0  0  0
   -5.4574   23.4673  -30.1295 O   0  0  0  0  0  0  0  0  0  0  0  0
   -3.3484   22.7710  -29.4537 C   0  0  0  0  0  0  0  0  0  0  0  0
   -2.0048   22.5496  -29.6000 C   0  0  0  0  0  0  0  0  0  0  0  0
   -1.1110   23.1758  -30.9567 Cl  0  0  0  0  0  0  0  0  0  0  0  0
   -1.2661   21.7854  -28.6830 C   0  0  0  0  0  0  0  0  0  0  0  0
   -1.8666   21.2238  -27.5935 C   0  0  0  0  0  0  0  0  0  0  0  0
   -3.2177   21.4357  -27.4314 C   0  0  0  0  0  0  0  0  0  0  0  0
   -3.9342   22.1819  -28.3279 C   0  0  0  0  0  0  0  0  0  0  0  0
   -5.6584   22.3749  -27.9999 Cl  0  0  0  0  0  0  0  0  0  0  0  0
   -5.2810   24.6327  -33.2706 C   0  0  0  0  0  0  0  0  0  0  0  0
   -6.2082   25.4079  -33.9464 C   0  0  0  0  0  0  0  0  0  0  0  0
   -6.5944   26.6033  -33.5034 N   0  0  0  0  0  0  0  0  0  0  0  0
   -5.9425   30.2826  -28.6726 H   0  0  0  0  0  0  0  0  0  0  0  0
   -5.4629   31.8061  -29.5187 H   0  0  0  0  0  0  0  0  0  0  0  0
   -7.1372   31.5832  -28.7774 H   0  0  0  0  0  0  0  0  0  0  0  0
   -6.6753   31.2175  -31.4645 H   0  0  0  0  0  0  0  0  0  0  0  0
   -7.9386   30.3442  -30.5724 H   0  0  0  0  0  0  0  0  0  0  0  0
   -7.3235   28.8930  -32.6398 H   0  0  0  0  0  0  0  0  0  0  0  0
   -4.7714   26.7832  -30.7598 H   0  0  0  0  0  0  0  0  0  0  0  0
   -2.8231   24.6270  -31.5460 H   0  0  0  0  0  0  0  0  0  0  0  0
   -0.2056   21.6247  -28.8191 H   0  0  0  0  0  0  0  0  0  0  0  0
   -1.3502   20.6274  -26.8558 H   0  0  0  0  0  0  0  0  0  0  0  0
   -3.7051   20.9977  -26.5743 H   0  0  0  0  0  0  0  0  0  0  0  0
   -4.9595   23.6687  -33.6135 H   0  0  0  0  0  0  0  0  0  0  0  0
   -6.6469   25.0532  -34.8653 H   0  0  0  0  0  0  0  0  0  0  0  0
  1  2  1  0
  2  3  1  0
  3  4  2  0
  3  5  1  0
  5  6  1  0
  6  7  2  0
  7  8  1  0
  8  9  1  0
  9 10  1  0
 10 11  2  0
 10 12  1  0
 12 13  2  0
 13 14  1  0
 13 15  1  0
 15 16  2  0
 16 17  1  0
 17 18  2  0
 18 19  1  0
  8 20  2  0
 20 21  1  0
 21 22  2  0
 22  6  1  0
 18 12  1  0
  1 23  1  0
  1 24  1  0
  1 25  1  0
  2 26  1  0
  2 27  1  0
  5 28  1  0
  7 29  1  0
  9 30  1  0
 15 31  1  0
 16 32  1  0
 17 33  1  0
 20 34  1  0
 21 35  1  0
M  END
$$$$
