
     RDKit          3D

 35 36  0  0  0  0  0  0  0  0999 V2000
   -5.3299   31.4863  -30.0871 C   0  0  0  0  0  0  0  0  0  0  0  0
   -5.7893   30.8182  -31.3358 C   0  0  0  0  0  0  0  0  0  0  0  0
   -5.7332   29.3309  -31.2500 C   0  0  0  0  0  0  0  0  0  0  0  0
   -5.3203   28.8452  -30.1740 O   0  0  0  0  0  0  0  0  0  0  0  0
   -6.1316   28.5346  -32.3419 N   0  0  0  0  0  0  0  0  0  0  0  0
   -6.1249   27.1238  -32.3840 C   0  0  0  0  0  0  0  0  0  0  0  0
   -5.7402   26.2813  -31.3983 C   0  0  0  0  0  0  0  0  0  0  0  0
   -5.7696   24.8853  -31.5357 C   0  0  0  0  0  0  0  0  0  0  0  0
   -5.3550   24.0402  -30.4705 N   0  0  0  0  0  0  0  0  0  0  0  0
   -4.0130   23.6591  -30.3985 C   0  0  0  0  0  0  0  0  0  0  0  0
   -3.2661   24.1321  -31.3335 O   0  0  0  0  0  0  0  0  0  0  0  0
   -3.3626   22.8231  -29.4339 C   0  0  0  0  0  0  0  0  0  0  0  0
   -1.9689   22.7167  -29.5279 C   0  0  0  0  0  0  0  0  0  0  0  0
   -1.0471   23.5650  -30.7482 Cl  0  0  0  0  0  0  0  0  0  0  0  0
   -1.2471   21.9247  -28.6452 C   0  0  0  0  0  0  0  0  0  0  0  0
   -1.8624   21.2142  -27.6465 C   0  0  0  0  0  0  0  0  0  0  0  0
   -3.2151   21.3049  -27.5398 C   0  0  0  0  0  0  0  0  0  0  0  0
   -3.9443   22.1015  -28.4274 C   0  0  0  0  0  0  0  0  0  0  0  0
   -5.6719   22.1127  -28.1862 Cl  0  0  0  0  0  0  0  0  0  0  0  0
   -6.2116   24.3342  -32.7329 C   0  0  0  0  0  0  0  0  0  0  0  0
   -6.5926   25.2265  -33.7069 C   0  0  0  0  0  0  0  0  0  0  0  0
   -6.5532   26.5495  -33.5460 N   0  0  0  0  0  0  0  0  0  0  0  0
   -4.3704   31.1249  -29.6888 H   0  0  0  0  0  0  0  0  0  0  0  0
   -6.1299   31.4663  -29.3069 H   0  0  0  0  0  0  0  0  0  0  0  0
   -5.1866   32.5678  -30.3143 H   0  0  0  0  0  0  0  0  0  0  0  0
   -5.2776   31.2047  -32.2475 H   0  0  0  0  0  0  0  0  0  0  0  0
   -6.8727   31.0943  -31.4765 H   0  0  0  0  0  0  0  0  0  0  0  0
   -6.4622   29.0715  -33.1971 H   0  0  0  0  0  0  0  0  0  0  0  0
   -5.3970   26.6471  -30.4712 H   0  0  0  0  0  0  0  0  0  0  0  0
   -6.0248   23.7368  -29.7866 H   0  0  0  0  0  0  0  0  0  0  0  0
   -0.1775   21.8582  -28.7357 H   0  0  0  0  0  0  0  0  0  0  0  0
   -1.3083   20.5984  -26.9587 H   0  0  0  0  0  0  0  0  0  0  0  0
   -3.7024   20.7461  -26.7538 H   0  0  0  0  0  0  0  0  0  0  0  0
   -6.2567   23.2697  -32.8979 H   0  0  0  0  0  0  0  0  0  0  0  0
   -6.9449   24.8552  -34.6582 H   0  0  0  0  0  0  0  0  0  0  0  0
  1  2  1  0
  2  3  1  0
  3  4  2  0
  3  5  1  0
  5  6  1  0
  6  7  2  0
  7  8  1  0
  8  9  1  0
  9 10  1  0
 10 11  2  0
 10 12  1  0
 12 13  2  0
 13 14  1  0
 13 15  1  0
 15 16  2  0
 16 17  1  0
 17 18  2  0
 18 19  1  0
  8 20  2  0
 20 21  1  0
 21 22  2  0
 22  6  1  0
 18 12  1  0
  1 23  1  0
  1 24  1  0
  1 25  1  0
  2 26  1  0
  2 27  1  0
  5 28  1  0
  7 29  1  0
  9 30  1  0
 15 31  1  0
 16 32  1  0
 17 33  1  0
 20 34  1  0
 21 35  1  0
M  END
$$$$
