
     RDKit          3D

 29 30  0  0  0  0  0  0  0  0999 V2000
   -4.4682   29.3537  -31.1213 O   0  0  0  0  0  0  0  0  0  0  0  0
   -5.3621   29.6778  -31.9300 C   0  0  0  0  0  0  0  0  0  0  0  0
   -6.2112   28.7419  -32.5632 N   0  0  0  0  0  0  0  0  0  0  0  0
   -6.1779   27.3402  -32.3822 C   0  0  0  0  0  0  0  0  0  0  0  0
   -5.3403   26.6474  -31.5821 C   0  0  0  0  0  0  0  0  0  0  0  0
   -5.3488   25.2496  -31.4378 C   0  0  0  0  0  0  0  0  0  0  0  0
   -4.4218   24.6290  -30.5681 N   0  0  0  0  0  0  0  0  0  0  0  0
   -4.2787   23.2643  -30.2980 C   0  0  0  0  0  0  0  0  0  0  0  0
   -5.0892   22.4788  -30.9024 O   0  0  0  0  0  0  0  0  0  0  0  0
   -3.3338   22.6154  -29.4191 C   0  0  0  0  0  0  0  0  0  0  0  0
   -2.2010   23.1684  -28.8826 C   0  0  0  0  0  0  0  0  0  0  0  0
   -1.6760   24.7761  -29.2772 Cl  0  0  0  0  0  0  0  0  0  0  0  0
   -1.3803   22.4534  -28.0066 C   0  0  0  0  0  0  0  0  0  0  0  0
   -1.6694   21.1573  -27.6407 C   0  0  0  0  0  0  0  0  0  0  0  0
   -2.7948   20.5930  -28.1688 C   0  0  0  0  0  0  0  0  0  0  0  0
   -3.5963   21.2901  -29.0230 C   0  0  0  0  0  0  0  0  0  0  0  0
   -5.0236   20.4475  -29.6357 Cl  0  0  0  0  0  0  0  0  0  0  0  0
   -6.2956   24.5958  -32.1863 C   0  0  0  0  0  0  0  0  0  0  0  0
   -7.1691   25.3009  -33.0188 C   0  0  0  0  0  0  0  0  0  0  0  0
   -7.0918   26.6294  -33.0961 N   0  0  0  0  0  0  0  0  0  0  0  0
   -5.4672   30.7369  -32.1359 H   0  0  0  0  0  0  0  0  0  0  0  0
   -6.9254   29.1630  -33.2269 H   0  0  0  0  0  0  0  0  0  0  0  0
   -4.6083   27.1672  -31.0051 H   0  0  0  0  0  0  0  0  0  0  0  0
   -3.7802   25.2817  -30.0551 H   0  0  0  0  0  0  0  0  0  0  0  0
   -0.4882   22.8969  -27.5864 H   0  0  0  0  0  0  0  0  0  0  0  0
   -1.0203   20.6264  -26.9630 H   0  0  0  0  0  0  0  0  0  0  0  0
   -3.0246   19.5754  -27.8840 H   0  0  0  0  0  0  0  0  0  0  0  0
   -6.4282   23.5357  -32.1862 H   0  0  0  0  0  0  0  0  0  0  0  0
   -7.9195   24.8105  -33.6152 H   0  0  0  0  0  0  0  0  0  0  0  0
  1  2  2  0
  2  3  1  0
  3  4  1  0
  4  5  2  0
  5  6  1  0
  6  7  1  0
  7  8  1  0
  8  9  2  0
  8 10  1  0
 10 11  2  0
 11 12  1  0
 11 13  1  0
 13 14  2  0
 14 15  1  0
 15 16  2  0
 16 17  1  0
  6 18  2  0
 18 19  1  0
 19 20  2  0
 20  4  1  0
 16 10  1  0
  2 21  1  0
  3 22  1  0
  5 23  1  0
  7 24  1  0
 13 25  1  0
 14 26  1  0
 15 27  1  0
 18 28  1  0
 19 29  1  0
M  END
$$$$
