
     RDKit          3D

 39 41  0  0  0  0  0  0  0  0999 V2000
   -4.6431   31.5661  -30.6727 C   0  0  0  0  0  0  0  0  0  0  0  0
   -6.0536   31.9358  -30.9694 C   0  0  2  0  0  0  0  0  0  0  0  0
   -7.0778   31.3693  -29.9743 C   0  0  0  0  0  0  0  0  0  0  0  0
   -7.0869   30.9757  -31.4157 C   0  0  2  0  0  0  0  0  0  0  0  0
   -6.8104   29.6073  -31.8480 C   0  0  0  0  0  0  0  0  0  0  0  0
   -7.4740   29.1500  -32.8269 O   0  0  0  0  0  0  0  0  0  0  0  0
   -5.8582   28.7326  -31.2673 N   0  0  0  0  0  0  0  0  0  0  0  0
   -5.6489   27.3953  -31.7589 C   0  0  0  0  0  0  0  0  0  0  0  0
   -4.7171   26.5696  -31.1739 C   0  0  0  0  0  0  0  0  0  0  0  0
   -4.5355   25.2897  -31.6651 C   0  0  0  0  0  0  0  0  0  0  0  0
   -3.5889   24.3822  -31.1078 N   0  0  0  0  0  0  0  0  0  0  0  0
   -4.0140   23.5391  -30.0685 C   0  0  0  0  0  0  0  0  0  0  0  0
   -5.2479   23.6856  -29.7369 O   0  0  0  0  0  0  0  0  0  0  0  0
   -3.2476   22.5578  -29.3569 C   0  0  0  0  0  0  0  0  0  0  0  0
   -1.8913   22.3758  -29.3908 C   0  0  0  0  0  0  0  0  0  0  0  0
   -0.8534   23.4284  -30.3105 Cl  0  0  0  0  0  0  0  0  0  0  0  0
   -1.2482   21.3552  -28.6765 C   0  0  0  0  0  0  0  0  0  0  0  0
   -1.9713   20.4846  -27.9008 C   0  0  0  0  0  0  0  0  0  0  0  0
   -3.3263   20.6504  -27.8532 C   0  0  0  0  0  0  0  0  0  0  0  0
   -3.9543   21.6508  -28.5541 C   0  0  0  0  0  0  0  0  0  0  0  0
   -5.7052   21.7470  -28.4012 Cl  0  0  0  0  0  0  0  0  0  0  0  0
   -5.3224   24.9199  -32.7364 C   0  0  0  0  0  0  0  0  0  0  0  0
   -6.2534   25.7614  -33.3119 C   0  0  0  0  0  0  0  0  0  0  0  0
   -6.4049   27.0016  -32.8088 N   0  0  0  0  0  0  0  0  0  0  0  0
   -4.1795   30.9247  -31.4516 H   0  0  0  0  0  0  0  0  0  0  0  0
   -4.0168   32.5010  -30.6853 H   0  0  0  0  0  0  0  0  0  0  0  0
   -4.5410   31.1743  -29.6406 H   0  0  0  0  0  0  0  0  0  0  0  0
   -6.2176   33.0329  -31.1890 H   0  0  0  0  0  0  0  0  0  0  0  0
   -6.7090   30.6342  -29.2262 H   0  0  0  0  0  0  0  0  0  0  0  0
   -7.8197   32.0584  -29.5614 H   0  0  0  0  0  0  0  0  0  0  0  0
   -7.9126   31.4663  -32.0143 H   0  0  0  0  0  0  0  0  0  0  0  0
   -5.2929   29.0633  -30.4579 H   0  0  0  0  0  0  0  0  0  0  0  0
   -4.1195   26.9122  -30.3271 H   0  0  0  0  0  0  0  0  0  0  0  0
   -2.6358   24.3523  -31.4757 H   0  0  0  0  0  0  0  0  0  0  0  0
   -0.1759   21.2337  -28.7217 H   0  0  0  0  0  0  0  0  0  0  0  0
   -1.5159   19.6874  -27.3367 H   0  0  0  0  0  0  0  0  0  0  0  0
   -3.8978   19.9721  -27.2480 H   0  0  0  0  0  0  0  0  0  0  0  0
   -5.1826   23.9043  -33.1308 H   0  0  0  0  0  0  0  0  0  0  0  0
   -6.8659   25.4553  -34.1556 H   0  0  0  0  0  0  0  0  0  0  0  0
  1  2  1  0
  2  3  1  0
  3  4  1  0
  4  5  1  0
  5  6  2  0
  5  7  1  0
  7  8  1  0
  8  9  2  0
  9 10  1  0
 10 11  1  0
 11 12  1  0
 12 13  2  0
 12 14  1  0
 14 15  2  0
 15 16  1  0
 15 17  1  0
 17 18  2  0
 18 19  1  0
 19 20  2  0
 20 21  1  0
 10 22  2  0
 22 23  1  0
 23 24  2  0
  4  2  1  0
 24  8  1  0
 20 14  1  0
  1 25  1  0
  1 26  1  0
  1 27  1  0
  2 28  1  6
  3 29  1  0
  3 30  1  0
  4 31  1  6
  7 32  1  0
  9 33  1  0
 11 34  1  0
 17 35  1  0
 18 36  1  0
 19 37  1  0
 22 38  1  0
 23 39  1  0
M  END
$$$$
