
     RDKit          3D

 41 42  0  0  0  0  0  0  0  0999 V2000
   -4.3114   31.6937  -32.0568 C   0  0  0  0  0  0  0  0  0  0  0  0
   -5.0856   31.6694  -30.7460 C   0  0  0  0  0  0  0  0  0  0  0  0
   -6.2280   30.6831  -30.8528 C   0  0  0  0  0  0  0  0  0  0  0  0
   -7.0400   30.6027  -29.5959 C   0  0  0  0  0  0  0  0  0  0  0  0
   -5.7734   29.3808  -31.3578 C   0  0  0  0  0  0  0  0  0  0  0  0
   -4.5549   29.1757  -31.6500 O   0  0  0  0  0  0  0  0  0  0  0  0
   -6.7498   28.3499  -31.5096 N   0  0  0  0  0  0  0  0  0  0  0  0
   -6.4262   27.0501  -31.9895 C   0  0  0  0  0  0  0  0  0  0  0  0
   -6.0613   26.0564  -31.1044 C   0  0  0  0  0  0  0  0  0  0  0  0
   -5.7484   24.7930  -31.5892 C   0  0  0  0  0  0  0  0  0  0  0  0
   -5.3755   23.7920  -30.6413 N   0  0  0  0  0  0  0  0  0  0  0  0
   -4.0134   23.6709  -30.3186 C   0  0  0  0  0  0  0  0  0  0  0  0
   -3.2437   24.4930  -30.9345 O   0  0  0  0  0  0  0  0  0  0  0  0
   -3.3858   22.7633  -29.4090 C   0  0  0  0  0  0  0  0  0  0  0  0
   -1.9845   22.7366  -29.4112 C   0  0  0  0  0  0  0  0  0  0  0  0
   -1.0431   23.7532  -30.4879 Cl  0  0  0  0  0  0  0  0  0  0  0  0
   -1.2721   21.9075  -28.5676 C   0  0  0  0  0  0  0  0  0  0  0  0
   -1.8953   21.0645  -27.6808 C   0  0  0  0  0  0  0  0  0  0  0  0
   -3.2643   21.0754  -27.6624 C   0  0  0  0  0  0  0  0  0  0  0  0
   -3.9926   21.9181  -28.5194 C   0  0  0  0  0  0  0  0  0  0  0  0
   -5.7151   21.8423  -28.3723 Cl  0  0  0  0  0  0  0  0  0  0  0  0
   -5.7976   24.5193  -32.9405 C   0  0  0  0  0  0  0  0  0  0  0  0
   -6.1667   25.5399  -33.7897 C   0  0  0  0  0  0  0  0  0  0  0  0
   -6.4728   26.7756  -33.3156 N   0  0  0  0  0  0  0  0  0  0  0  0
   -4.1831   32.7290  -32.4312 H   0  0  0  0  0  0  0  0  0  0  0  0
   -3.3326   31.1805  -31.9084 H   0  0  0  0  0  0  0  0  0  0  0  0
   -4.8750   31.1541  -32.8532 H   0  0  0  0  0  0  0  0  0  0  0  0
   -5.4990   32.6842  -30.5599 H   0  0  0  0  0  0  0  0  0  0  0  0
   -4.3952   31.4056  -29.9203 H   0  0  0  0  0  0  0  0  0  0  0  0
   -6.9211   31.0947  -31.6322 H   0  0  0  0  0  0  0  0  0  0  0  0
   -7.3754   31.6268  -29.3560 H   0  0  0  0  0  0  0  0  0  0  0  0
   -7.9433   30.0106  -29.8179 H   0  0  0  0  0  0  0  0  0  0  0  0
   -6.5067   30.1852  -28.7245 H   0  0  0  0  0  0  0  0  0  0  0  0
   -7.7447   28.5405  -31.2636 H   0  0  0  0  0  0  0  0  0  0  0  0
   -6.0294   26.2947  -30.0438 H   0  0  0  0  0  0  0  0  0  0  0  0
   -6.0735   23.1784  -30.2188 H   0  0  0  0  0  0  0  0  0  0  0  0
   -0.1993   21.9065  -28.5901 H   0  0  0  0  0  0  0  0  0  0  0  0
   -1.2942   20.4350  -27.0418 H   0  0  0  0  0  0  0  0  0  0  0  0
   -3.7667   20.4168  -26.9692 H   0  0  0  0  0  0  0  0  0  0  0  0
   -5.5463   23.5201  -33.2832 H   0  0  0  0  0  0  0  0  0  0  0  0
   -6.2037   25.3161  -34.8601 H   0  0  0  0  0  0  0  0  0  0  0  0
  1  2  1  0
  2  3  1  0
  3  4  1  0
  3  5  1  0
  5  6  2  0
  5  7  1  0
  7  8  1  0
  8  9  2  0
  9 10  1  0
 10 11  1  0
 11 12  1  0
 12 13  2  0
 12 14  1  0
 14 15  2  0
 15 16  1  0
 15 17  1  0
 17 18  2  0
 18 19  1  0
 19 20  2  0
 20 21  1  0
 10 22  2  0
 22 23  1  0
 23 24  2  0
 24  8  1  0
 20 14  1  0
  1 25  1  0
  1 26  1  0
  1 27  1  0
  2 28  1  0
  2 29  1  0
  3 30  1  0
  4 31  1  0
  4 32  1  0
  4 33  1  0
  7 34  1  0
  9 35  1  0
 11 36  1  0
 17 37  1  0
 18 38  1  0
 19 39  1  0
 22 40  1  0
 23 41  1  0
M  END
$$$$
