
     RDKit          3D

 39 42  0  0  0  0  0  0  0  0999 V2000
   -3.1461   14.3942  -13.1698 C   0  0  0  0  0  0  0  0  0  0  0  0
   -4.0031   13.3685  -12.6045 N   0  0  0  0  0  0  0  0  0  0  0  0
   -5.4065   13.4120  -12.7916 C   0  0  0  0  0  0  0  0  0  0  0  0
   -5.8381   14.4004  -13.4822 O   0  0  0  0  0  0  0  0  0  0  0  0
   -6.3575   12.4484  -12.2750 C   0  0  0  0  0  0  0  0  0  0  0  0
   -7.6612   12.4387  -12.7107 C   0  0  0  0  0  0  0  0  0  0  0  0
   -8.5822   11.5110  -12.2124 C   0  0  0  0  0  0  0  0  0  0  0  0
   -8.1879   10.5837  -11.2666 C   0  0  0  0  0  0  0  0  0  0  0  0
   -8.7751    9.5828  -10.6048 N   0  0  0  0  0  0  0  0  0  0  0  0
   -7.9159    8.9925   -9.8029 N   0  0  0  0  0  0  0  0  0  0  0  0
   -6.6865    9.5911   -9.8980 C   0  0  0  0  0  0  0  0  0  0  0  0
   -5.4759    9.2116   -9.1193 C   0  0  0  0  0  0  0  0  0  0  0  0
   -5.2878   10.0826   -7.9571 C   0  0  0  0  0  0  0  0  0  0  0  0
   -5.9724    9.7605   -6.7873 C   0  0  0  0  0  0  0  0  0  0  0  0
   -5.8368   10.5224   -5.6634 C   0  0  0  0  0  0  0  0  0  0  0  0
   -5.0051   11.6172   -5.7204 C   0  0  0  0  0  0  0  0  0  0  0  0
   -4.3151   11.9555   -6.8733 C   0  0  0  0  0  0  0  0  0  0  0  0
   -3.5654   13.0889   -6.6451 C   0  0  0  0  0  0  0  0  0  0  0  0
   -3.8033   13.4282   -5.3649 N   0  0  0  0  0  0  0  0  0  0  0  0
   -4.6601   12.5559   -4.8075 N   0  0  0  0  0  0  0  0  0  0  0  0
   -5.0745   12.6626   -3.5084 O   0  0  0  0  0  0  0  0  0  0  0  0
   -4.4682   11.1683   -7.9986 C   0  0  0  0  0  0  0  0  0  0  0  0
   -6.8643   10.5944  -10.8242 C   0  0  0  0  0  0  0  0  0  0  0  0
   -5.9608   11.5313  -11.3366 C   0  0  0  0  0  0  0  0  0  0  0  0
   -2.0727   14.1531  -12.9940 H   0  0  0  0  0  0  0  0  0  0  0  0
   -3.2476   14.5046  -14.2634 H   0  0  0  0  0  0  0  0  0  0  0  0
   -3.3607   15.3765  -12.7223 H   0  0  0  0  0  0  0  0  0  0  0  0
   -3.6093   12.5791  -12.0530 H   0  0  0  0  0  0  0  0  0  0  0  0
   -7.9287   13.1790  -13.4501 H   0  0  0  0  0  0  0  0  0  0  0  0
   -9.6038   11.5163  -12.5639 H   0  0  0  0  0  0  0  0  0  0  0  0
   -9.8011    9.3425  -10.7462 H   0  0  0  0  0  0  0  0  0  0  0  0
   -4.6037    9.2745   -9.8146 H   0  0  0  0  0  0  0  0  0  0  0  0
   -5.5375    8.1461   -8.7889 H   0  0  0  0  0  0  0  0  0  0  0  0
   -6.6353    8.8951   -6.7249 H   0  0  0  0  0  0  0  0  0  0  0  0
   -6.3642   10.2838   -4.7400 H   0  0  0  0  0  0  0  0  0  0  0  0
   -2.9237   13.5826   -7.3743 H   0  0  0  0  0  0  0  0  0  0  0  0
   -6.0113   12.3483   -3.2821 H   0  0  0  0  0  0  0  0  0  0  0  0
   -3.9343   11.4167   -8.8893 H   0  0  0  0  0  0  0  0  0  0  0  0
   -4.9478   11.5229  -10.9895 H   0  0  0  0  0  0  0  0  0  0  0  0
  1  2  1  0
  2  3  1  0
  3  4  2  0
  3  5  1  0
  5  6  2  0
  6  7  1  0
  7  8  2  0
  8  9  1  0
  9 10  1  0
 10 11  2  0
 11 12  1  0
 12 13  1  0
 13 14  2  0
 14 15  1  0
 15 16  2  0
 16 17  1  0
 17 18  1  0
 18 19  2  0
 19 20  1  0
 20 21  1  0
 17 22  2  0
 11 23  1  0
 23 24  2  0
 24  5  1  0
 23  8  1  0
 22 13  1  0
 20 16  1  0
  1 25  1  0
  1 26  1  0
  1 27  1  0
  2 28  1  0
  6 29  1  0
  7 30  1  0
  9 31  1  0
 12 32  1  0
 12 33  1  0
 14 34  1  0
 15 35  1  0
 18 36  1  0
 21 37  1  0
 22 38  1  0
 24 39  1  0
M  END
$$$$
