
     RDKit          3D

 50 54  0  0  0  0  0  0  0  0999 V2000
   -5.8754   15.3971  -17.9776 C   0  0  0  0  0  0  0  0  0  0  0  0
   -5.8649   16.0634  -16.7154 N   0  0  0  0  0  0  0  0  0  0  0  0
   -5.2991   15.2781  -15.6435 C   0  0  0  0  0  0  0  0  0  0  0  0
   -6.0069   14.0182  -15.2980 C   0  0  0  0  0  0  0  0  0  0  0  0
   -6.0258   14.3776  -13.9175 N   0  0  0  0  0  0  0  0  0  0  0  0
   -6.3192   13.7816  -12.6690 C   0  0  0  0  0  0  0  0  0  0  0  0
   -6.1491   14.5597  -11.6513 O   0  0  0  0  0  0  0  0  0  0  0  0
   -6.7745   12.4348  -12.4282 C   0  0  0  0  0  0  0  0  0  0  0  0
   -7.0602   11.5655  -13.4495 C   0  0  0  0  0  0  0  0  0  0  0  0
   -7.4768   10.2679  -13.1198 C   0  0  0  0  0  0  0  0  0  0  0  0
   -7.6034    9.8551  -11.8366 C   0  0  0  0  0  0  0  0  0  0  0  0
   -7.9642    8.7255  -11.1942 N   0  0  0  0  0  0  0  0  0  0  0  0
   -7.9129    8.8627   -9.9053 N   0  0  0  0  0  0  0  0  0  0  0  0
   -7.5019   10.1331   -9.6201 C   0  0  0  0  0  0  0  0  0  0  0  0
   -7.3227   10.6404   -8.2578 C   0  0  0  0  0  0  0  0  0  0  0  0
   -5.9455   10.7263   -7.7831 C   0  0  0  0  0  0  0  0  0  0  0  0
   -5.2853   11.9299   -7.7755 C   0  0  0  0  0  0  0  0  0  0  0  0
   -3.9927   12.0807   -7.3593 C   0  0  0  0  0  0  0  0  0  0  0  0
   -3.2835   10.9867   -6.9158 C   0  0  0  0  0  0  0  0  0  0  0  0
   -3.9160    9.7646   -6.9098 C   0  0  0  0  0  0  0  0  0  0  0  0
   -2.9790    8.8766   -6.4273 C   0  0  0  0  0  0  0  0  0  0  0  0
   -1.8472    9.5536   -6.1629 N   0  0  0  0  0  0  0  0  0  0  0  0
   -2.0158   10.8321   -6.4535 N   0  0  0  0  0  0  0  0  0  0  0  0
   -1.0901   11.9390   -6.3413 C   0  0  0  0  0  0  0  0  0  0  0  0
   -5.2192    9.6410   -7.3351 C   0  0  0  0  0  0  0  0  0  0  0  0
   -7.3030   10.7709  -10.8198 C   0  0  0  0  0  0  0  0  0  0  0  0
   -6.8930   12.0470  -11.0943 C   0  0  0  0  0  0  0  0  0  0  0  0
   -5.6245   15.7262  -14.2687 C   0  0  0  0  0  0  0  0  0  0  0  0
   -5.2445   14.4799  -17.9792 H   0  0  0  0  0  0  0  0  0  0  0  0
   -5.3751   16.0868  -18.7134 H   0  0  0  0  0  0  0  0  0  0  0  0
   -6.8906   15.2181  -18.3951 H   0  0  0  0  0  0  0  0  0  0  0  0
   -5.4949   17.0198  -16.7562 H   0  0  0  0  0  0  0  0  0  0  0  0
   -4.2017   15.0630  -15.8208 H   0  0  0  0  0  0  0  0  0  0  0  0
   -7.0423   13.9104  -15.6881 H   0  0  0  0  0  0  0  0  0  0  0  0
   -5.4395   13.0913  -15.5817 H   0  0  0  0  0  0  0  0  0  0  0  0
   -6.9859   11.8591  -14.4862 H   0  0  0  0  0  0  0  0  0  0  0  0
   -7.6957    9.5947  -13.9297 H   0  0  0  0  0  0  0  0  0  0  0  0
   -8.2468    7.8609  -11.7126 H   0  0  0  0  0  0  0  0  0  0  0  0
   -7.8757   11.6218   -8.1469 H   0  0  0  0  0  0  0  0  0  0  0  0
   -7.8715    9.9769   -7.5225 H   0  0  0  0  0  0  0  0  0  0  0  0
   -5.8115   12.8204   -8.1085 H   0  0  0  0  0  0  0  0  0  0  0  0
   -3.5096   13.0462   -7.3708 H   0  0  0  0  0  0  0  0  0  0  0  0
   -3.0952    7.8135   -6.2742 H   0  0  0  0  0  0  0  0  0  0  0  0
   -0.9650   12.3666   -7.3773 H   0  0  0  0  0  0  0  0  0  0  0  0
   -0.1335   11.6684   -5.8980 H   0  0  0  0  0  0  0  0  0  0  0  0
   -1.6179   12.7373   -5.7678 H   0  0  0  0  0  0  0  0  0  0  0  0
   -5.7128    8.6698   -7.3281 H   0  0  0  0  0  0  0  0  0  0  0  0
   -6.6745   12.7264  -10.2853 H   0  0  0  0  0  0  0  0  0  0  0  0
   -4.7844   16.1223  -13.6601 H   0  0  0  0  0  0  0  0  0  0  0  0
   -6.5040   16.4257  -14.2713 H   0  0  0  0  0  0  0  0  0  0  0  0
  1  2  1  0
  2  3  1  0
  3  4  1  0
  4  5  1  0
  5  6  1  0
  6  7  2  0
  6  8  1  0
  8  9  2  0
  9 10  1  0
 10 11  2  0
 11 12  1  0
 12 13  1  0
 13 14  2  0
 14 15  1  0
 15 16  1  0
 16 17  2  0
 17 18  1  0
 18 19  2  0
 19 20  1  0
 20 21  1  0
 21 22  2  0
 22 23  1  0
 23 24  1  0
 20 25  2  0
 14 26  1  0
 26 27  2  0
  5 28  1  0
 28  3  1  0
 27  8  1  0
 26 11  1  0
 25 16  1  0
 23 19  1  0
  1 29  1  0
  1 30  1  0
  1 31  1  0
  2 32  1  0
  3 33  1  0
  4 34  1  0
  4 35  1  0
  9 36  1  0
 10 37  1  0
 12 38  1  0
 15 39  1  0
 15 40  1  0
 17 41  1  0
 18 42  1  0
 21 43  1  0
 24 44  1  0
 24 45  1  0
 24 46  1  0
 25 47  1  0
 27 48  1  0
 28 49  1  0
 28 50  1  0
M  END
$$$$
