
     RDKit          3D

 42 45  0  0  0  0  0  0  0  0999 V2000
   -6.0341   15.0707  -11.0307 C   0  0  0  0  0  0  0  0  0  0  0  0
   -6.0080   14.7747  -12.4447 N   0  0  0  0  0  0  0  0  0  0  0  0
   -5.6323   15.7044  -13.3618 C   0  0  0  0  0  0  0  0  0  0  0  0
   -5.7346   15.0929  -14.5883 C   0  0  0  0  0  0  0  0  0  0  0  0
   -6.1529   13.8660  -14.3581 N   0  0  0  0  0  0  0  0  0  0  0  0
   -6.3365   13.6257  -13.0300 C   0  0  0  0  0  0  0  0  0  0  0  0
   -6.7984   12.3570  -12.5139 C   0  0  0  0  0  0  0  0  0  0  0  0
   -7.1269   11.3280  -13.4086 C   0  0  0  0  0  0  0  0  0  0  0  0
   -7.5627   10.0975  -13.0228 C   0  0  0  0  0  0  0  0  0  0  0  0
   -7.7104    9.7846  -11.6943 C   0  0  0  0  0  0  0  0  0  0  0  0
   -8.1053    8.7190  -10.9987 N   0  0  0  0  0  0  0  0  0  0  0  0
   -8.0622    8.9665   -9.7114 N   0  0  0  0  0  0  0  0  0  0  0  0
   -7.6213   10.2459   -9.5239 C   0  0  0  0  0  0  0  0  0  0  0  0
   -7.4082   10.9116   -8.2113 C   0  0  0  0  0  0  0  0  0  0  0  0
   -5.9905   10.9107   -7.7807 C   0  0  0  0  0  0  0  0  0  0  0  0
   -5.5424    9.7635   -7.1102 C   0  0  0  0  0  0  0  0  0  0  0  0
   -4.2400    9.7071   -6.6799 C   0  0  0  0  0  0  0  0  0  0  0  0
   -3.3657   10.7530   -6.8933 C   0  0  0  0  0  0  0  0  0  0  0  0
   -3.7898   11.8973   -7.5550 C   0  0  0  0  0  0  0  0  0  0  0  0
   -2.8447   13.0075   -7.7763 C   0  0  0  0  0  0  0  0  0  0  0  0
   -1.9748   12.7542   -8.8377 O   0  0  0  0  0  0  0  0  0  0  0  0
   -5.1192   11.9546   -7.9937 C   0  0  0  0  0  0  0  0  0  0  0  0
   -7.4009   10.7592  -10.7805 C   0  0  0  0  0  0  0  0  0  0  0  0
   -6.9496   12.0317  -11.1974 C   0  0  0  0  0  0  0  0  0  0  0  0
   -5.3425   14.5037  -10.4148 H   0  0  0  0  0  0  0  0  0  0  0  0
   -5.7239   16.1544  -10.8804 H   0  0  0  0  0  0  0  0  0  0  0  0
   -7.0697   14.9441  -10.6577 H   0  0  0  0  0  0  0  0  0  0  0  0
   -5.3086   16.7397  -13.1829 H   0  0  0  0  0  0  0  0  0  0  0  0
   -5.4951   15.6033  -15.5109 H   0  0  0  0  0  0  0  0  0  0  0  0
   -7.0200   11.5505  -14.4619 H   0  0  0  0  0  0  0  0  0  0  0  0
   -7.8111    9.3169  -13.7362 H   0  0  0  0  0  0  0  0  0  0  0  0
   -8.4068    7.8143  -11.4447 H   0  0  0  0  0  0  0  0  0  0  0  0
   -8.0773   10.4375   -7.4622 H   0  0  0  0  0  0  0  0  0  0  0  0
   -7.7393   11.9557   -8.2982 H   0  0  0  0  0  0  0  0  0  0  0  0
   -6.2493    8.9479   -6.9515 H   0  0  0  0  0  0  0  0  0  0  0  0
   -3.8827    8.8168   -6.1571 H   0  0  0  0  0  0  0  0  0  0  0  0
   -2.3378   10.7105   -6.5545 H   0  0  0  0  0  0  0  0  0  0  0  0
   -2.3135   13.3348   -6.8600 H   0  0  0  0  0  0  0  0  0  0  0  0
   -3.4678   13.8949   -8.0957 H   0  0  0  0  0  0  0  0  0  0  0  0
   -1.3899   11.9796   -8.5678 H   0  0  0  0  0  0  0  0  0  0  0  0
   -5.4377   12.8427   -8.4955 H   0  0  0  0  0  0  0  0  0  0  0  0
   -6.7312   12.7399  -10.4380 H   0  0  0  0  0  0  0  0  0  0  0  0
  1  2  1  0
  2  3  1  0
  3  4  2  0
  4  5  1  0
  5  6  2  0
  6  7  1  0
  7  8  2  0
  8  9  1  0
  9 10  2  0
 10 11  1  0
 11 12  1  0
 12 13  2  0
 13 14  1  0
 14 15  1  0
 15 16  2  0
 16 17  1  0
 17 18  2  0
 18 19  1  0
 19 20  1  0
 20 21  1  0
 19 22  2  0
 13 23  1  0
 23 24  2  0
  6  2  1  0
 24  7  1  0
 23 10  1  0
 22 15  1  0
  1 25  1  0
  1 26  1  0
  1 27  1  0
  3 28  1  0
  4 29  1  0
  8 30  1  0
  9 31  1  0
 11 32  1  0
 14 33  1  0
 14 34  1  0
 16 35  1  0
 17 36  1  0
 18 37  1  0
 20 38  1  0
 20 39  1  0
 21 40  1  0
 22 41  1  0
 24 42  1  0
M  END
$$$$
