
     RDKit          3D

 45 49  0  0  0  0  0  0  0  0999 V2000
    0.8751   14.0614   -5.7536 C   0  0  0  0  0  0  0  0  0  0  0  0
   -0.0846   13.0311   -6.0950 N   0  0  0  0  0  0  0  0  0  0  0  0
   -1.4307   13.2363   -6.2452 C   0  0  0  0  0  0  0  0  0  0  0  0
   -1.9399   12.0380   -6.7165 C   0  0  0  0  0  0  0  0  0  0  0  0
   -3.3606   11.7477   -7.0159 C   0  0  0  0  0  0  0  0  0  0  0  0
   -4.2717   12.6283   -7.4104 C   0  0  0  0  0  0  0  0  0  0  0  0
   -5.5728   12.2749   -7.8172 C   0  0  0  0  0  0  0  0  0  0  0  0
   -5.9568   10.9977   -7.8284 C   0  0  0  0  0  0  0  0  0  0  0  0
   -7.2659   10.4575   -8.2802 C   0  0  0  0  0  0  0  0  0  0  0  0
   -7.0777   10.2020   -9.7238 C   0  0  0  0  0  0  0  0  0  0  0  0
   -5.9539    9.4673  -10.2239 N   0  0  0  0  0  0  0  0  0  0  0  0
   -6.0714    9.4918  -11.4554 N   0  0  0  0  0  0  0  0  0  0  0  0
   -7.1099   10.1197  -11.9751 C   0  0  0  0  0  0  0  0  0  0  0  0
   -7.5710   10.3443  -13.2287 C   0  0  0  0  0  0  0  0  0  0  0  0
   -8.7463   11.1018  -13.3917 C   0  0  0  0  0  0  0  0  0  0  0  0
   -9.3648   11.5712  -12.3088 C   0  0  0  0  0  0  0  0  0  0  0  0
  -10.5026   12.4389  -12.3986 C   0  0  0  0  0  0  0  0  0  0  0  0
  -11.1611   13.0350  -11.6377 O   0  0  0  0  0  0  0  0  0  0  0  0
  -10.8566   12.5659  -13.9888 N   0  0  0  0  0  0  0  0  0  0  0  0
  -11.4650   13.1603  -13.9864 C   0  0  0  0  0  0  0  0  0  0  0  0
  -11.9360   13.6218  -13.9844 C   0  0  0  0  0  0  0  0  0  0  0  0
  -12.4026   14.0742  -13.9924 C   0  0  0  0  0  0  0  0  0  0  0  0
   -8.9269   11.3415  -10.9932 C   0  0  0  0  0  0  0  0  0  0  0  0
   -7.7886   10.6049  -10.8119 C   0  0  0  0  0  0  0  0  0  0  0  0
   -4.9987   10.0280   -7.4054 C   0  0  0  0  0  0  0  0  0  0  0  0
   -3.7479   10.3933   -7.0142 C   0  0  0  0  0  0  0  0  0  0  0  0
   -0.9166   11.1720   -6.8390 C   0  0  0  0  0  0  0  0  0  0  0  0
    0.2197   11.8174   -6.4453 N   0  0  0  0  0  0  0  0  0  0  0  0
    0.6135   14.6084   -4.8724 H   0  0  0  0  0  0  0  0  0  0  0  0
    0.9594   14.7806   -6.6450 H   0  0  0  0  0  0  0  0  0  0  0  0
    1.9070   13.6431   -5.6589 H   0  0  0  0  0  0  0  0  0  0  0  0
   -1.8967   14.1398   -6.0176 H   0  0  0  0  0  0  0  0  0  0  0  0
   -4.0271   13.6801   -7.4252 H   0  0  0  0  0  0  0  0  0  0  0  0
   -6.2768   13.0624   -8.1338 H   0  0  0  0  0  0  0  0  0  0  0  0
   -7.5312    9.5679   -7.6972 H   0  0  0  0  0  0  0  0  0  0  0  0
   -8.0533   11.2135   -8.1715 H   0  0  0  0  0  0  0  0  0  0  0  0
   -5.3386    9.0089  -12.1152 H   0  0  0  0  0  0  0  0  0  0  0  0
   -7.1409   10.0023  -14.1142 H   0  0  0  0  0  0  0  0  0  0  0  0
   -9.1014   11.2760  -14.4032 H   0  0  0  0  0  0  0  0  0  0  0  0
  -11.5205   14.5785  -15.1707 H   0  0  0  0  0  0  0  0  0  0  0  0
  -12.7784   13.1827  -15.2154 H   0  0  0  0  0  0  0  0  0  0  0  0
   -9.4410   11.7187  -10.1534 H   0  0  0  0  0  0  0  0  0  0  0  0
   -5.3366    9.0029   -7.4285 H   0  0  0  0  0  0  0  0  0  0  0  0
   -3.0101    9.6960   -6.7129 H   0  0  0  0  0  0  0  0  0  0  0  0
   -0.9750   10.1576   -7.1979 H   0  0  0  0  0  0  0  0  0  0  0  0
  1  2  1  0
  2  3  1  0
  3  4  2  0
  4  5  1  0
  5  6  2  0
  6  7  1  0
  7  8  2  0
  8  9  1  0
  9 10  1  0
 10 11  2  0
 11 12  1  0
 12 13  1  0
 13 14  2  0
 14 15  1  0
 15 16  2  0
 16 17  1  0
 17 18  2  0
 17 19  1  0
 19 20  1  0
 20 21  3  0
 21 22  1  0
 16 23  1  0
 23 24  2  0
  8 25  1  0
 25 26  2  0
  4 27  1  0
 27 28  2  0
 28  2  1  0
 26  5  1  0
 24 10  1  0
 24 13  1  0
 22 19  1  0
  1 29  1  0
  1 30  1  0
  1 31  1  0
  3 32  1  0
  6 33  1  0
  7 34  1  0
  9 35  1  0
  9 36  1  0
 12 37  1  0
 14 38  1  0
 15 39  1  0
 22 40  1  0
 22 41  1  0
 23 42  1  0
 25 43  1  0
 26 44  1  0
 27 45  1  0
M  END
$$$$
