
     RDKit          3D

 39 42  0  0  0  0  0  0  0  0999 V2000
   -4.4356   15.7573  -12.3199 C   0  0  0  0  0  0  0  0  0  0  0  0
   -5.1388   14.5802  -11.7899 N   0  0  0  0  0  0  0  0  0  0  0  0
   -5.5721   13.6012  -12.7142 C   0  0  0  0  0  0  0  0  0  0  0  0
   -5.3308   13.7882  -13.9433 O   0  0  0  0  0  0  0  0  0  0  0  0
   -6.2783   12.4039  -12.2867 C   0  0  0  0  0  0  0  0  0  0  0  0
   -6.7413   11.5205  -13.2580 C   0  0  0  0  0  0  0  0  0  0  0  0
   -7.4199   10.3722  -12.9197 C   0  0  0  0  0  0  0  0  0  0  0  0
   -7.6639   10.0591  -11.6014 C   0  0  0  0  0  0  0  0  0  0  0  0
   -8.2810    9.0527  -10.9615 N   0  0  0  0  0  0  0  0  0  0  0  0
   -8.2479    9.2228   -9.6653 N   0  0  0  0  0  0  0  0  0  0  0  0
   -7.5961   10.3658   -9.4153 C   0  0  0  0  0  0  0  0  0  0  0  0
   -7.3179   10.9254   -8.0630 C   0  0  0  0  0  0  0  0  0  0  0  0
   -5.9558   10.6859   -7.5775 C   0  0  0  0  0  0  0  0  0  0  0  0
   -5.6512    9.4582   -6.9721 C   0  0  0  0  0  0  0  0  0  0  0  0
   -4.3816    9.2125   -6.5020 C   0  0  0  0  0  0  0  0  0  0  0  0
   -3.3858   10.1778   -6.6212 C   0  0  0  0  0  0  0  0  0  0  0  0
   -3.6500   11.3963   -7.2107 C   0  0  0  0  0  0  0  0  0  0  0  0
   -4.9434   11.6106   -7.6745 C   0  0  0  0  0  0  0  0  0  0  0  0
   -2.4019   12.1920   -7.1869 C   0  0  0  0  0  0  0  0  0  0  0  0
   -1.4519   11.3104   -6.5408 N   0  0  0  0  0  0  0  0  0  0  0  0
   -1.9776   10.1894   -6.2198 C   0  0  0  0  0  0  0  0  0  0  0  0
   -7.2237   10.9028  -10.6237 C   0  0  0  0  0  0  0  0  0  0  0  0
   -6.5315   12.0734  -10.9786 C   0  0  0  0  0  0  0  0  0  0  0  0
   -4.5352   16.6308  -11.6398 H   0  0  0  0  0  0  0  0  0  0  0  0
   -3.3719   15.5511  -12.5081 H   0  0  0  0  0  0  0  0  0  0  0  0
   -4.9128   16.0873  -13.2868 H   0  0  0  0  0  0  0  0  0  0  0  0
   -5.3111   14.4739  -10.7678 H   0  0  0  0  0  0  0  0  0  0  0  0
   -6.5666   11.7334  -14.3229 H   0  0  0  0  0  0  0  0  0  0  0  0
   -7.7871    9.6728  -13.6769 H   0  0  0  0  0  0  0  0  0  0  0  0
   -8.7257    8.2426  -11.4731 H   0  0  0  0  0  0  0  0  0  0  0  0
   -7.5020   12.0130   -8.0775 H   0  0  0  0  0  0  0  0  0  0  0  0
   -8.0986   10.5097   -7.3703 H   0  0  0  0  0  0  0  0  0  0  0  0
   -6.4353    8.7396   -6.8954 H   0  0  0  0  0  0  0  0  0  0  0  0
   -4.1892    8.2434   -6.0376 H   0  0  0  0  0  0  0  0  0  0  0  0
   -5.1003   12.5857   -8.1227 H   0  0  0  0  0  0  0  0  0  0  0  0
   -2.4937   13.1744   -6.7038 H   0  0  0  0  0  0  0  0  0  0  0  0
   -2.0061   12.3731   -8.2225 H   0  0  0  0  0  0  0  0  0  0  0  0
   -1.5086    9.3317   -5.7234 H   0  0  0  0  0  0  0  0  0  0  0  0
   -6.1919   12.7371  -10.1982 H   0  0  0  0  0  0  0  0  0  0  0  0
  1  2  1  0
  2  3  1  0
  3  4  2  0
  3  5  1  0
  5  6  2  0
  6  7  1  0
  7  8  2  0
  8  9  1  0
  9 10  1  0
 10 11  2  0
 11 12  1  0
 12 13  1  0
 13 14  2  0
 14 15  1  0
 15 16  2  0
 16 17  1  0
 17 18  2  0
 17 19  1  0
 19 20  1  0
 20 21  2  0
 11 22  1  0
 22 23  2  0
 23  5  1  0
 22  8  1  0
 18 13  1  0
 21 16  1  0
  1 24  1  0
  1 25  1  0
  1 26  1  0
  2 27  1  0
  6 28  1  0
  7 29  1  0
  9 30  1  0
 12 31  1  0
 12 32  1  0
 14 33  1  0
 15 34  1  0
 18 35  1  0
 19 36  1  0
 19 37  1  0
 21 38  1  0
 23 39  1  0
M  END
$$$$
