
     RDKit          3D

 38 41  0  0  0  0  0  0  0  0999 V2000
    0.4042   14.4367   -5.4862 C   0  0  0  0  0  0  0  0  0  0  0  0
   -0.2921   13.3331   -6.0861 N   0  0  0  0  0  0  0  0  0  0  0  0
   -1.6197   13.2348   -6.2259 C   0  0  0  0  0  0  0  0  0  0  0  0
   -1.9325   12.0269   -6.8521 C   0  0  0  0  0  0  0  0  0  0  0  0
   -3.2636   11.5375   -7.1882 C   0  0  0  0  0  0  0  0  0  0  0  0
   -3.5888   10.2074   -7.2128 C   0  0  0  0  0  0  0  0  0  0  0  0
   -4.8605    9.8124   -7.5374 C   0  0  0  0  0  0  0  0  0  0  0  0
   -5.8559   10.7433   -7.8504 C   0  0  0  0  0  0  0  0  0  0  0  0
   -7.2273   10.3675   -8.1925 C   0  0  0  0  0  0  0  0  0  0  0  0
   -7.4291    9.9616   -9.5934 C   0  0  0  0  0  0  0  0  0  0  0  0
   -7.5452    8.6770   -9.9743 N   0  0  0  0  0  0  0  0  0  0  0  0
   -7.7111    8.5790  -11.2800 N   0  0  0  0  0  0  0  0  0  0  0  0
   -7.7103    9.8274  -11.8191 C   0  0  0  0  0  0  0  0  0  0  0  0
   -7.8424   10.3277  -13.0989 C   0  0  0  0  0  0  0  0  0  0  0  0
   -7.8021   11.6799  -13.3467 C   0  0  0  0  0  0  0  0  0  0  0  0
   -7.6247   12.5443  -12.2792 C   0  0  0  0  0  0  0  0  0  0  0  0
   -7.4904   12.0503  -10.9850 C   0  0  0  0  0  0  0  0  0  0  0  0
   -7.5320   10.6942  -10.7486 C   0  0  0  0  0  0  0  0  0  0  0  0
   -5.4980   12.0698   -7.8164 C   0  0  0  0  0  0  0  0  0  0  0  0
   -4.2236   12.4709   -7.4915 C   0  0  0  0  0  0  0  0  0  0  0  0
   -0.7130   11.4242   -7.0707 C   0  0  0  0  0  0  0  0  0  0  0  0
    0.2593   12.2534   -6.5892 N   0  0  0  0  0  0  0  0  0  0  0  0
    0.6292   14.2348   -4.4252 H   0  0  0  0  0  0  0  0  0  0  0  0
   -0.2670   15.3454   -5.4757 H   0  0  0  0  0  0  0  0  0  0  0  0
    1.2941   14.7492   -6.0655 H   0  0  0  0  0  0  0  0  0  0  0  0
   -2.3903   13.9307   -5.9300 H   0  0  0  0  0  0  0  0  0  0  0  0
   -2.8375    9.4854   -6.9758 H   0  0  0  0  0  0  0  0  0  0  0  0
   -5.1551    8.7748   -7.5677 H   0  0  0  0  0  0  0  0  0  0  0  0
   -7.5709    9.5697   -7.4790 H   0  0  0  0  0  0  0  0  0  0  0  0
   -7.9006   11.2468   -7.9671 H   0  0  0  0  0  0  0  0  0  0  0  0
   -7.8272    7.6890  -11.8351 H   0  0  0  0  0  0  0  0  0  0  0  0
   -7.9810    9.6581  -13.9346 H   0  0  0  0  0  0  0  0  0  0  0  0
   -7.9024   12.1067  -14.3387 H   0  0  0  0  0  0  0  0  0  0  0  0
   -7.5909   13.6126  -12.4583 H   0  0  0  0  0  0  0  0  0  0  0  0
   -7.3548   12.7244  -10.1526 H   0  0  0  0  0  0  0  0  0  0  0  0
   -6.2796   12.8108   -8.0556 H   0  0  0  0  0  0  0  0  0  0  0  0
   -3.9693   13.5337   -7.4734 H   0  0  0  0  0  0  0  0  0  0  0  0
   -0.5109   10.4778   -7.5309 H   0  0  0  0  0  0  0  0  0  0  0  0
  1  2  1  0
  2  3  1  0
  3  4  2  0
  4  5  1  0
  5  6  2  0
  6  7  1  0
  7  8  2  0
  8  9  1  0
  9 10  1  0
 10 11  2  0
 11 12  1  0
 12 13  1  0
 13 14  2  0
 14 15  1  0
 15 16  2  0
 16 17  1  0
 17 18  2  0
  8 19  1  0
 19 20  2  0
  4 21  1  0
 21 22  2  0
 22  2  1  0
 20  5  1  0
 18 10  1  0
 18 13  1  0
  1 23  1  0
  1 24  1  0
  1 25  1  0
  3 26  1  0
  6 27  1  0
  7 28  1  0
  9 29  1  0
  9 30  1  0
 12 31  1  0
 14 32  1  0
 15 33  1  0
 16 34  1  0
 17 35  1  0
 19 36  1  0
 20 37  1  0
 21 38  1  0
M  END
$$$$
