
     RDKit          3D

 36 39  0  0  0  0  0  0  0  0999 V2000
   -0.9250   11.0425   -6.3574 C   0  0  0  0  0  0  0  0  0  0  0  0
   -2.1655   10.2853   -6.3252 N   0  0  0  0  0  0  0  0  0  0  0  0
   -2.3667    9.1123   -5.7909 N   0  0  0  0  0  0  0  0  0  0  0  0
   -3.6313    8.7004   -5.9472 C   0  0  0  0  0  0  0  0  0  0  0  0
   -4.2748    9.7092   -6.6414 C   0  0  0  0  0  0  0  0  0  0  0  0
   -5.5816    9.8128   -7.0714 C   0  0  0  0  0  0  0  0  0  0  0  0
   -5.9718   10.9615   -7.7653 C   0  0  0  0  0  0  0  0  0  0  0  0
   -7.3642   11.0270   -8.2026 C   0  0  0  0  0  0  0  0  0  0  0  0
   -7.6043   10.3277   -9.5051 C   0  0  0  0  0  0  0  0  0  0  0  0
   -8.0991    9.0960   -9.6790 N   0  0  0  0  0  0  0  0  0  0  0  0
   -8.1310    8.8342  -10.9584 N   0  0  0  0  0  0  0  0  0  0  0  0
   -7.6665    9.8646  -11.6744 C   0  0  0  0  0  0  0  0  0  0  0  0
   -7.4867   10.1240  -13.0209 C   0  0  0  0  0  0  0  0  0  0  0  0
   -6.9737   11.3311  -13.4627 C   0  0  0  0  0  0  0  0  0  0  0  0
   -6.6302   12.3058  -12.5425 C   0  0  0  0  0  0  0  0  0  0  0  0
   -6.0920   13.5838  -13.0312 C   0  0  0  0  0  0  0  0  0  0  0  0
   -5.7754   14.4628  -12.1962 O   0  0  0  0  0  0  0  0  0  0  0  0
   -6.8065   12.0522  -11.2025 C   0  0  0  0  0  0  0  0  0  0  0  0
   -7.3264   10.8284  -10.7542 C   0  0  0  0  0  0  0  0  0  0  0  0
   -5.0614   11.9323   -7.9919 C   0  0  0  0  0  0  0  0  0  0  0  0
   -3.7484   11.8195   -7.5553 C   0  0  0  0  0  0  0  0  0  0  0  0
   -3.3289   10.7008   -6.8692 C   0  0  0  0  0  0  0  0  0  0  0  0
   -0.9358   11.7298   -5.4937 H   0  0  0  0  0  0  0  0  0  0  0  0
   -0.0444   10.3825   -6.2333 H   0  0  0  0  0  0  0  0  0  0  0  0
   -0.8547   11.6360   -7.2929 H   0  0  0  0  0  0  0  0  0  0  0  0
   -4.1318    7.7957   -5.6346 H   0  0  0  0  0  0  0  0  0  0  0  0
   -6.3069    9.0370   -6.8902 H   0  0  0  0  0  0  0  0  0  0  0  0
   -8.0114   10.5799   -7.4256 H   0  0  0  0  0  0  0  0  0  0  0  0
   -7.6458   12.0825   -8.3549 H   0  0  0  0  0  0  0  0  0  0  0  0
   -8.4667    7.9429  -11.4409 H   0  0  0  0  0  0  0  0  0  0  0  0
   -7.7679    9.3320  -13.7149 H   0  0  0  0  0  0  0  0  0  0  0  0
   -6.8307   11.5362  -14.5198 H   0  0  0  0  0  0  0  0  0  0  0  0
   -5.9676   13.7779  -14.0729 H   0  0  0  0  0  0  0  0  0  0  0  0
   -6.5532   12.7926  -10.4878 H   0  0  0  0  0  0  0  0  0  0  0  0
   -5.2989   12.8445   -8.5124 H   0  0  0  0  0  0  0  0  0  0  0  0
   -3.0179   12.6061   -7.7414 H   0  0  0  0  0  0  0  0  0  0  0  0
  1  2  1  0
  2  3  1  0
  3  4  2  0
  4  5  1  0
  5  6  2  0
  6  7  1  0
  7  8  1  0
  8  9  1  0
  9 10  2  0
 10 11  1  0
 11 12  1  0
 12 13  2  0
 13 14  1  0
 14 15  2  0
 15 16  1  0
 16 17  2  0
 15 18  1  0
 18 19  2  0
  7 20  2  0
 20 21  1  0
 21 22  2  0
 22  2  1  0
 22  5  1  0
 19  9  1  0
 19 12  1  0
  1 23  1  0
  1 24  1  0
  1 25  1  0
  4 26  1  0
  6 27  1  0
  8 28  1  0
  8 29  1  0
 11 30  1  0
 13 31  1  0
 14 32  1  0
 16 33  1  0
 18 34  1  0
 20 35  1  0
 21 36  1  0
M  END
$$$$
