
     RDKit          3D

 39 41  0  0  0  0  0  0  0  0999 V2000
   17.8123    1.6808   -8.4634 N   0  0  0  0  0  0  0  0  0  0  0  0
   18.4153    0.9268   -9.1006 C   0  0  0  0  0  0  0  0  0  0  0  0
   19.1830    0.0047   -9.9024 C   0  0  0  0  0  0  0  0  0  0  0  0
   18.6844   -1.2306  -10.2049 C   0  0  0  0  0  0  0  0  0  0  0  0
   19.4595   -2.0712  -10.9740 C   0  0  0  0  0  0  0  0  0  0  0  0
   18.9712   -3.2899  -11.2742 F   0  0  0  0  0  0  0  0  0  0  0  0
   20.7092   -1.6750  -11.4280 C   0  0  0  0  0  0  0  0  0  0  0  0
   21.2027   -0.4206  -11.1145 C   0  0  0  0  0  0  0  0  0  0  0  0
   22.4340   -0.0422  -11.5671 O   0  0  0  0  0  0  0  0  0  0  0  0
   23.6226   -0.2385  -10.9019 C   0  0  0  0  0  0  0  0  0  0  0  0
   23.5873   -0.8712   -9.6688 C   0  0  0  0  0  0  0  0  0  0  0  0
   24.7833   -1.0590   -9.0162 C   0  0  0  0  0  0  0  0  0  0  0  0
   25.9903   -0.6479   -9.5356 C   0  0  0  0  0  0  0  0  0  0  0  0
   27.4438   -0.8563   -8.6228 S   0  0  0  0  0  6  0  0  0  0  0  0
   28.4938   -1.6313   -9.3561 O   0  0  0  0  0  0  0  0  0  0  0  0
   27.1059   -1.6939   -7.4091 O   0  0  0  0  0  0  0  0  0  0  0  0
   28.0200    0.6914   -8.0310 C   0  0  0  0  0  0  0  0  0  0  0  0
   28.0058    1.7041   -8.9216 F   0  0  0  0  0  0  0  0  0  0  0  0
   27.1344    1.0334   -6.9738 F   0  0  0  0  0  0  0  0  0  0  0  0
   26.0042   -0.0198  -10.7691 C   0  0  0  0  0  0  0  0  0  0  0  0
   24.8171    0.1820  -11.4454 C   0  0  0  0  0  0  0  0  0  0  0  0
   25.0983    0.8789  -12.7668 C   0  0  0  0  0  0  0  0  0  0  0  0
   26.5195    0.3488  -13.0171 C   0  0  0  0  0  0  0  0  0  0  0  0
   26.4844   -0.9456  -13.4485 F   0  0  0  0  0  0  0  0  0  0  0  0
   27.1950    1.1816  -13.8851 F   0  0  0  0  0  0  0  0  0  0  0  0
   27.0811    0.4847  -11.5964 C   0  0  2  0  0  0  0  0  0  0  0  0
   28.3062   -0.1343  -11.5043 O   0  0  0  0  0  0  0  0  0  0  0  0
   29.5884    0.9954  -11.6239 S   0  0  0  0  0  0  0  0  0  0  0  0
   20.4068    0.4089  -10.3397 C   0  0  0  0  0  0  0  0  0  0  0  0
   17.6977   -1.5111   -9.8318 H   0  0  0  0  0  0  0  0  0  0  0  0
   21.3071   -2.3491  -12.0329 H   0  0  0  0  0  0  0  0  0  0  0  0
   22.6569   -1.2019   -9.2411 H   0  0  0  0  0  0  0  0  0  0  0  0
   24.7505   -1.5543   -8.0522 H   0  0  0  0  0  0  0  0  0  0  0  0
   28.9954    0.5700   -7.4736 H   0  0  0  0  0  0  0  0  0  0  0  0
   25.0841    1.9536  -12.6045 H   0  0  0  0  0  0  0  0  0  0  0  0
   24.3860    0.5081  -13.5056 H   0  0  0  0  0  0  0  0  0  0  0  0
   27.2109    1.5710  -11.4676 H   0  0  0  0  0  0  0  0  0  0  0  0
   29.3980    1.8494  -12.7420 H   0  0  0  0  0  0  0  0  0  0  0  0
   20.8317    1.3886  -10.1148 H   0  0  0  0  0  0  0  0  0  0  0  0
  1  2  3  0
  2  3  1  0
  3  4  2  0
  4  5  1  0
  5  6  1  0
  5  7  2  0
  7  8  1  0
  8  9  1  0
  9 10  1  0
 10 11  2  0
 11 12  1  0
 12 13  2  0
 13 14  1  0
 14 15  2  0
 14 16  2  0
 14 17  1  0
 17 18  1  0
 17 19  1  0
 13 20  1  0
 20 21  2  0
 21 22  1  0
 22 23  1  0
 23 24  1  0
 23 25  1  0
 23 26  1  0
 26 27  1  0
 27 28  1  0
  8 29  2  0
 29  3  1  0
 21 10  1  0
 26 20  1  0
  4 30  1  0
  7 31  1  0
 11 32  1  0
 12 33  1  0
 17 34  1  0
 22 35  1  0
 22 36  1  0
 26 37  1  1
 28 38  1  0
 29 39  1  0
M  END
$$$$
