
     RDKit          3D

 50 52  0  0  0  0  0  0  0  0999 V2000
   16.8919   -0.8398  -11.0879 C   0  0  0  0  0  0  0  0  0  0  0  0
   18.3745   -0.7537  -11.0155 C   0  0  0  0  0  0  0  0  0  0  0  0
   19.0807   -1.4391  -10.0767 C   0  0  0  0  0  0  0  0  0  0  0  0
   20.4735   -1.3217  -10.0546 C   0  0  0  0  0  0  0  0  0  0  0  0
   21.1809   -0.5397  -10.9422 C   0  0  0  0  0  0  0  0  0  0  0  0
   22.4751   -0.3750  -10.9889 O   0  0  0  0  0  0  0  0  0  0  0  0
   23.6602   -0.6372  -10.4545 C   0  0  0  0  0  0  0  0  0  0  0  0
   23.8726   -1.3687   -9.2968 C   0  0  0  0  0  0  0  0  0  0  0  0
   25.1546   -1.6106   -8.7842 C   0  0  0  0  0  0  0  0  0  0  0  0
   26.2257   -1.1117   -9.4428 C   0  0  0  0  0  0  0  0  0  0  0  0
   27.8308   -1.3830   -8.8489 S   0  0  0  0  0  6  0  0  0  0  0  0
   28.6261   -2.0795   -9.9193 O   0  0  0  0  0  0  0  0  0  0  0  0
   28.4404   -0.0328   -8.5270 O   0  0  0  0  0  0  0  0  0  0  0  0
   27.8595   -2.3353   -7.3685 C   0  0  0  0  0  0  0  0  0  0  0  0
   29.3073   -2.5041   -6.9506 C   0  0  0  0  0  0  0  0  0  0  0  0
   29.4258   -3.2415   -5.7940 F   0  0  0  0  0  0  0  0  0  0  0  0
   26.0730   -0.3785  -10.5966 C   0  0  0  0  0  0  0  0  0  0  0  0
   24.8302   -0.1456  -11.0929 C   0  0  0  0  0  0  0  0  0  0  0  0
   24.9326    0.6403  -12.3429 C   0  0  0  0  0  0  0  0  0  0  0  0
   26.3493    0.2680  -12.8101 C   0  0  0  0  0  0  0  0  0  0  0  0
   26.3632   -0.9947  -13.3187 F   0  0  0  0  0  0  0  0  0  0  0  0
   26.8208    1.2162  -13.6934 F   0  0  0  0  0  0  0  0  0  0  0  0
   27.0924    0.2871  -11.4984 C   0  0  1  0  0  0  0  0  0  0  0  0
   27.3841    1.5672  -11.0608 O   0  0  0  0  0  0  0  0  0  0  0  0
   20.3962    0.1457  -11.8894 C   0  0  0  0  0  0  0  0  0  0  0  0
   21.0831    0.9981  -12.8316 C   0  0  0  0  0  0  0  0  0  0  0  0
   20.3488    1.6273  -13.7182 N   0  0  0  0  0  0  0  0  0  0  0  0
   20.9169    2.4669  -14.6629 N   0  0  0  0  0  0  0  0  0  0  0  0
   21.1437    3.8156  -14.4693 N   0  0  0  0  0  0  0  0  0  0  0  0
   19.0415    0.0365  -11.9181 C   0  0  0  0  0  0  0  0  0  0  0  0
   16.3895    0.1058  -10.8449 H   0  0  0  0  0  0  0  0  0  0  0  0
   16.4991   -1.6738  -10.4649 H   0  0  0  0  0  0  0  0  0  0  0  0
   16.6085   -1.0800  -12.1432 H   0  0  0  0  0  0  0  0  0  0  0  0
   18.6111   -2.0687   -9.3495 H   0  0  0  0  0  0  0  0  0  0  0  0
   20.9851   -1.8898   -9.2973 H   0  0  0  0  0  0  0  0  0  0  0  0
   23.0477   -1.7790   -8.7355 H   0  0  0  0  0  0  0  0  0  0  0  0
   25.2173   -2.1933   -7.8742 H   0  0  0  0  0  0  0  0  0  0  0  0
   27.2899   -1.8489   -6.5666 H   0  0  0  0  0  0  0  0  0  0  0  0
   27.4418   -3.3522   -7.4963 H   0  0  0  0  0  0  0  0  0  0  0  0
   29.8438   -2.9930   -7.8051 H   0  0  0  0  0  0  0  0  0  0  0  0
   29.7152   -1.4830   -6.7981 H   0  0  0  0  0  0  0  0  0  0  0  0
   24.8505    1.7166  -12.2032 H   0  0  0  0  0  0  0  0  0  0  0  0
   24.2746    0.2360  -13.1455 H   0  0  0  0  0  0  0  0  0  0  0  0
   28.0121   -0.3225  -11.5498 H   0  0  0  0  0  0  0  0  0  0  0  0
   28.3373    1.6349  -10.7421 H   0  0  0  0  0  0  0  0  0  0  0  0
   22.1435    1.1317  -12.8226 H   0  0  0  0  0  0  0  0  0  0  0  0
   21.1848    2.0180  -15.5844 H   0  0  0  0  0  0  0  0  0  0  0  0
   21.4367    4.0491  -13.4913 H   0  0  0  0  0  0  0  0  0  0  0  0
   21.8262    4.1658  -15.1807 H   0  0  0  0  0  0  0  0  0  0  0  0
   18.4703    0.5937  -12.6811 H   0  0  0  0  0  0  0  0  0  0  0  0
  1  2  1  0
  2  3  2  0
  3  4  1  0
  4  5  2  0
  5  6  1  0
  6  7  1  0
  7  8  2  0
  8  9  1  0
  9 10  2  0
 10 11  1  0
 11 12  2  0
 11 13  2  0
 11 14  1  0
 14 15  1  0
 15 16  1  0
 10 17  1  0
 17 18  2  0
 18 19  1  0
 19 20  1  0
 20 21  1  0
 20 22  1  0
 20 23  1  0
 23 24  1  0
  5 25  1  0
 25 26  1  0
 26 27  2  3
 27 28  1  0
 28 29  1  0
 25 30  2  0
 30  2  1  0
 18  7  1  0
 23 17  1  0
  1 31  1  0
  1 32  1  0
  1 33  1  0
  3 34  1  0
  4 35  1  0
  8 36  1  0
  9 37  1  0
 14 38  1  0
 14 39  1  0
 15 40  1  0
 15 41  1  0
 19 42  1  0
 19 43  1  0
 23 44  1  6
 24 45  1  0
 26 46  1  0
 28 47  1  0
 29 48  1  0
 29 49  1  0
 30 50  1  0
M  END
$$$$
