lig_69
     RDKit          3D

 52 55  0  0  0  0  0  0  0  0999 V2000
  -38.3102  -44.6858   17.0132 C   0  0  0  0  0  0  0  0  0  0  0  0
  -39.6543  -44.4823   17.3124 C   0  0  0  0  0  0  0  0  0  0  0  0
  -38.0379  -45.7876   19.1493 C   0  0  0  0  0  0  0  0  0  0  0  0
  -32.8431  -44.9774   16.2381 C   0  0  0  0  0  0  0  0  0  0  0  0
  -32.4539  -46.9534   18.0133 C   0  0  0  0  0  0  0  0  0  0  0  0
  -39.3828  -45.5739   19.4848 C   0  0  0  0  0  0  0  0  0  0  0  0
  -37.4926  -45.3299   17.9379 C   0  0  0  0  0  0  0  0  0  0  0  0
  -40.1715  -44.9090   18.5352 C   0  0  0  0  0  0  0  0  0  0  0  0
  -33.8936  -45.5432   16.9290 C   0  0  0  0  0  0  0  0  0  0  0  0
  -31.4018  -46.3907   17.3283 C   0  0  0  0  0  0  0  0  0  0  0  0
  -38.1702  -46.5120   22.5561 C   0  0  0  0  0  0  0  0  0  0  0  0
  -35.2912  -45.0907   16.7523 C   0  0  0  0  0  0  0  0  0  0  0  0
  -37.4340  -42.3260   23.4313 C   0  0  0  0  0  0  0  0  0  0  0  0
  -38.3750  -42.8627   24.4674 C   0  0  0  0  0  0  0  0  0  0  0  0
  -38.6819  -44.2430   22.2290 C   0  0  1  0  0  0  0  0  0  0  0  0
  -40.0585  -44.6755   21.7274 C   0  0  1  0  0  0  0  0  0  0  0  0
  -39.9257  -45.9426   20.8679 C   0  0  1  0  0  0  0  0  0  0  0  0
  -38.7415  -42.9502   23.0047 C   0  0  0  0  0  0  0  0  0  0  0  0
  -41.2530  -46.7111   20.7766 C   0  0  0  0  0  0  0  0  0  0  0  0
  -29.0941  -46.2999   16.8983 C   0  0  0  0  0  0  0  0  0  0  0  0
  -33.7140  -46.5385   17.8251 N   0  0  0  0  0  0  0  0  0  0  0  0
  -31.5744  -45.3943   16.4293 N   0  0  0  0  0  0  0  0  0  0  0  0
  -38.9901  -46.8592   21.5646 N   0  0  0  0  0  0  0  0  0  0  0  0
  -37.3730  -47.3811   23.1597 N   0  0  0  0  0  4  0  0  0  0  0  0
  -36.1143  -45.5493   17.7646 N   0  0  0  0  0  0  0  0  0  0  0  0
  -35.5814  -44.3763   15.8025 O   0  0  0  0  0  0  0  0  0  0  0  0
  -38.1050  -45.2651   23.0312 O   0  0  0  0  0  0  0  0  0  0  0  0
  -30.1553  -46.9065   17.6136 O   0  0  0  0  0  0  0  0  0  0  0  0
  -41.4551  -44.6275   18.7998 F   0  0  0  0  0  0  0  0  0  0  0  0
  -40.8386  -44.9492   22.8114 F   0  0  0  0  0  0  0  0  0  0  0  0
  -39.6981  -42.0334   22.5719 F   0  0  0  0  0  0  0  0  0  0  0  0
  -27.9596  -46.9310   17.3033 F   0  0  0  0  0  0  0  0  0  0  0  0
  -37.9402  -44.3297   16.0591 H   0  0  0  0  0  0  0  0  0  0  0  0
  -40.2964  -43.9702   16.6019 H   0  0  0  0  0  0  0  0  0  0  0  0
  -37.3717  -46.2734   19.8600 H   0  0  0  0  0  0  0  0  0  0  0  0
  -32.9706  -44.1717   15.5251 H   0  0  0  0  0  0  0  0  0  0  0  0
  -32.3211  -47.7514   18.7333 H   0  0  0  0  0  0  0  0  0  0  0  0
  -37.3377  -41.2515   23.3392 H   0  0  0  0  0  0  0  0  0  0  0  0
  -36.5166  -42.8735   23.2494 H   0  0  0  0  0  0  0  0  0  0  0  0
  -38.0717  -43.7541   25.0016 H   0  0  0  0  0  0  0  0  0  0  0  0
  -38.9120  -42.1467   25.0768 H   0  0  0  0  0  0  0  0  0  0  0  0
  -38.0129  -44.0621   21.3798 H   0  0  0  0  0  0  0  0  0  0  0  0
  -40.5519  -43.8667   21.1771 H   0  0  0  0  0  0  0  0  0  0  0  0
  -41.5447  -47.1055   21.7572 H   0  0  0  0  0  0  0  0  0  0  0  0
  -41.1621  -47.5695   20.1000 H   0  0  0  0  0  0  0  0  0  0  0  0
  -42.0774  -46.0870   20.4211 H   0  0  0  0  0  0  0  0  0  0  0  0
  -28.9945  -45.2386   17.1470 H   0  0  0  0  0  0  0  0  0  0  0  0
  -29.1950  -46.4519   15.8191 H   0  0  0  0  0  0  0  0  0  0  0  0
  -38.9594  -47.8349   21.2798 H   0  0  0  0  0  0  0  0  0  0  0  0
  -37.3526  -48.3548   22.8802 H   0  0  0  0  0  0  0  0  0  0  0  0
  -36.7706  -47.0727   23.9146 H   0  0  0  0  0  0  0  0  0  0  0  0
  -35.6680  -46.0826   18.5089 H   0  0  0  0  0  0  0  0  0  0  0  0
  1  2  2  0
  1  7  1  0
  2  8  1  0
  3  6  1  0
  3  7  2  0
  4  9  2  0
  4 22  1  0
  5 10  1  0
  5 21  2  0
  6  8  2  0
  6 17  1  0
  7 25  1  0
  8 29  1  0
  9 12  1  0
  9 21  1  0
 10 22  2  0
 10 28  1  0
 11 23  1  0
 11 24  2  0
 11 27  1  0
 12 25  1  0
 12 26  2  0
 13 14  1  0
 13 18  1  0
 14 18  1  0
 15 16  1  0
 15 18  1  0
 15 27  1  0
 16 17  1  0
 16 30  1  0
 17 19  1  6
 17 23  1  0
 18 31  1  0
 20 28  1  0
 20 32  1  0
  1 33  1  0
  2 34  1  0
  3 35  1  0
  4 36  1  0
  5 37  1  0
 13 38  1  0
 13 39  1  0
 14 40  1  0
 14 41  1  0
 15 42  1  6
 16 43  1  6
 19 44  1  0
 19 45  1  0
 19 46  1  0
 20 47  1  0
 20 48  1  0
 23 49  1  0
 24 50  1  0
 24 51  1  0
 25 52  1  0
M  CHG  1  24   1
M  END
