lig_32
     RDKit          3D

 46 49  0  0  0  0  0  0  0  0999 V2000
  -34.3135  -45.2077   17.1876 C   0  0  0  0  0  0  0  0  0  0  0  0
  -34.1973  -44.2951   16.1500 C   0  0  0  0  0  0  0  0  0  0  0  0
  -39.1764  -45.0011   16.9541 C   0  0  0  0  0  0  0  0  0  0  0  0
  -40.4542  -45.1821   17.4918 C   0  0  0  0  0  0  0  0  0  0  0  0
  -35.5656  -45.4789   17.7323 C   0  0  0  0  0  0  0  0  0  0  0  0
  -38.2381  -45.1951   19.1528 C   0  0  0  0  0  0  0  0  0  0  0  0
  -35.3543  -43.6914   15.6932 C   0  0  0  0  0  0  0  0  0  0  0  0
  -38.0382  -45.0149   17.7732 C   0  0  0  0  0  0  0  0  0  0  0  0
  -39.5193  -45.3544   19.7145 C   0  0  0  0  0  0  0  0  0  0  0  0
  -40.6249  -45.3728   18.8641 C   0  0  0  0  0  0  0  0  0  0  0  0
  -36.6860  -44.8194   17.2216 C   0  0  0  0  0  0  0  0  0  0  0  0
  -38.8939  -44.3714   21.9499 C   0  0  0  0  0  0  0  0  0  0  0  0
  -37.9558  -46.3933   22.5507 C   0  0  0  0  0  0  0  0  0  0  0  0
  -41.1544  -45.4253   21.6300 C   0  0  0  0  0  0  0  0  0  0  0  0
  -39.6895  -45.4757   21.2056 C   0  0  1  0  0  0  0  0  0  0  0  0
  -42.0923  -46.0925   20.6093 C   0  0  0  0  0  0  0  0  0  0  0  0
  -43.5439  -45.7704   21.0003 C   0  0  0  0  0  0  0  0  0  0  0  0
  -41.9410  -47.6194   20.5506 C   0  0  0  0  0  0  0  0  0  0  0  0
  -36.8680  -44.2891   23.4685 C   0  0  0  0  0  0  0  0  0  0  0  0
  -36.5864  -43.9319   16.1983 N   0  0  0  0  0  0  0  0  0  0  0  0
  -37.8638  -45.0312   22.7065 N   0  0  0  0  0  0  0  0  0  0  0  0
  -39.0139  -46.7075   21.6935 N   0  0  0  0  0  0  0  0  0  0  0  0
  -37.1447  -47.3366   23.1280 N   0  0  0  0  0  4  0  0  0  0  0  0
  -39.0749  -43.1663   21.8840 O   0  0  0  0  0  0  0  0  0  0  0  0
  -41.9143  -45.5454   19.2901 O   0  0  0  0  0  0  0  0  0  0  0  0
  -33.4324  -45.7079   17.5781 H   0  0  0  0  0  0  0  0  0  0  0  0
  -33.2326  -44.0649   15.7136 H   0  0  0  0  0  0  0  0  0  0  0  0
  -39.0846  -44.8594   15.8793 H   0  0  0  0  0  0  0  0  0  0  0  0
  -41.3151  -45.1774   16.8279 H   0  0  0  0  0  0  0  0  0  0  0  0
  -35.6446  -46.1977   18.5425 H   0  0  0  0  0  0  0  0  0  0  0  0
  -37.3767  -45.1829   19.8192 H   0  0  0  0  0  0  0  0  0  0  0  0
  -35.3216  -42.9701   14.8835 H   0  0  0  0  0  0  0  0  0  0  0  0
  -41.2830  -45.8704   22.6252 H   0  0  0  0  0  0  0  0  0  0  0  0
  -41.4515  -44.3711   21.7241 H   0  0  0  0  0  0  0  0  0  0  0  0
  -44.2483  -46.1902   20.2729 H   0  0  0  0  0  0  0  0  0  0  0  0
  -43.7158  -44.6876   21.0018 H   0  0  0  0  0  0  0  0  0  0  0  0
  -43.7926  -46.1628   21.9919 H   0  0  0  0  0  0  0  0  0  0  0  0
  -42.6909  -48.0552   19.8797 H   0  0  0  0  0  0  0  0  0  0  0  0
  -42.0619  -48.0718   21.5404 H   0  0  0  0  0  0  0  0  0  0  0  0
  -40.9725  -47.9242   20.1444 H   0  0  0  0  0  0  0  0  0  0  0  0
  -37.3730  -43.6990   24.2373 H   0  0  0  0  0  0  0  0  0  0  0  0
  -36.1567  -44.9674   23.9434 H   0  0  0  0  0  0  0  0  0  0  0  0
  -36.3255  -43.6246   22.7896 H   0  0  0  0  0  0  0  0  0  0  0  0
  -39.2564  -47.6658   21.4559 H   0  0  0  0  0  0  0  0  0  0  0  0
  -36.3797  -47.0817   23.7462 H   0  0  0  0  0  0  0  0  0  0  0  0
  -37.2893  -48.3276   22.9503 H   0  0  0  0  0  0  0  0  0  0  0  0
  1  2  2  0
  1  5  1  0
  2  7  1  0
  3  4  2  0
  3  8  1  0
  4 10  1  0
  5 11  2  0
  6  8  2  0
  6  9  1  0
  7 20  2  0
  8 11  1  0
  9 10  2  0
  9 15  1  0
 10 25  1  0
 11 20  1  0
 12 15  1  0
 12 21  1  0
 12 24  2  0
 13 21  1  0
 13 22  1  0
 13 23  2  0
 14 15  1  0
 14 16  1  0
 15 22  1  1
 16 17  1  0
 16 18  1  0
 16 25  1  0
 19 21  1  0
  1 26  1  0
  2 27  1  0
  3 28  1  0
  4 29  1  0
  5 30  1  0
  6 31  1  0
  7 32  1  0
 14 33  1  0
 14 34  1  0
 17 35  1  0
 17 36  1  0
 17 37  1  0
 18 38  1  0
 18 39  1  0
 18 40  1  0
 19 41  1  0
 19 42  1  0
 19 43  1  0
 22 44  1  0
 23 45  1  0
 23 46  1  0
M  CHG  1  23   1
M  END
