
     RDKit          3D

 49 53  0  0  0  0  0  0  0  0999 V2000
   85.9094   46.2451  266.5610 C   0  0  0  0  0  0  0  0  0  0  0  0
   87.5245   46.9495  266.8674 S   0  0  0  0  0  6  0  0  0  0  0  0
   87.2970   48.4320  267.0978 O   0  0  0  0  0  0  0  0  0  0  0  0
   88.0678   46.3072  268.0939 O   0  0  0  0  0  0  0  0  0  0  0  0
   88.5039   46.6690  265.4644 C   0  0  0  0  0  0  0  0  0  0  0  0
   88.0074   46.0120  264.3596 C   0  0  0  0  0  0  0  0  0  0  0  0
   88.8421   45.8210  263.2685 C   0  0  0  0  0  0  0  0  0  0  0  0
   90.1010   46.2665  263.2909 N   0  0  0  0  0  0  0  0  0  0  0  0
   90.6174   46.9237  264.3794 C   0  0  0  0  0  0  0  0  0  0  0  0
   89.8247   47.1321  265.4800 C   0  0  0  0  0  0  0  0  0  0  0  0
   90.2546   47.8182  266.6140 N   0  0  0  0  0  0  0  0  0  0  0  0
   91.6152   48.1830  266.8757 C   0  0  0  0  0  0  0  0  0  0  0  0
   91.9153   49.4174  267.4366 C   0  0  0  0  0  0  0  0  0  0  0  0
   93.2160   49.7457  267.7219 C   0  0  0  0  0  0  0  0  0  0  0  0
   93.5421   51.0374  268.3102 C   0  0  0  0  0  0  0  0  0  0  0  0
   94.5908   51.7949  267.8448 C   0  0  0  0  0  0  0  0  0  0  0  0
   94.8725   53.0080  268.4206 C   0  0  0  0  0  0  0  0  0  0  0  0
   94.1021   53.4765  269.4738 C   0  0  0  0  0  0  0  0  0  0  0  0
   93.0536   52.7134  269.9351 C   0  0  0  0  0  0  0  0  0  0  0  0
   92.7638   51.4805  269.3533 C   0  0  0  0  0  0  0  0  0  0  0  0
   92.2020   53.1688  271.0561 C   0  0  0  0  0  0  0  0  0  0  0  0
   92.6060   54.4872  271.5893 C   0  0  0  0  0  0  0  0  0  0  0  0
   93.6154   55.2027  271.1319 C   0  0  0  0  0  0  0  0  0  0  0  0
   94.3486   54.6880  270.0817 O   0  0  0  0  0  0  0  0  0  0  0  0
   94.2430   48.8472  267.4525 C   0  0  0  0  0  0  0  0  0  0  0  0
   95.5181   49.1796  267.7361 N   0  0  0  0  0  0  0  0  0  0  0  0
   96.5092   48.3070  267.4737 C   0  0  0  0  0  0  0  0  0  0  0  0
   96.2359   47.0813  266.9202 C   0  0  0  0  0  0  0  0  0  0  0  0
   94.9642   46.7569  266.6404 N   0  0  0  0  0  0  0  0  0  0  0  0
   93.9546   47.6220  266.8975 C   0  0  0  0  0  0  0  0  0  0  0  0
   92.6440   47.3097  266.6186 C   0  0  0  0  0  0  0  0  0  0  0  0
   85.8926   45.1603  266.6984 H   0  0  0  0  0  0  0  0  0  0  0  0
   85.5565   46.4605  265.5334 H   0  0  0  0  0  0  0  0  0  0  0  0
   85.1511   46.6756  267.2450 H   0  0  0  0  0  0  0  0  0  0  0  0
   86.9808   45.6417  264.3242 H   0  0  0  0  0  0  0  0  0  0  0  0
   88.4845   45.3085  262.3844 H   0  0  0  0  0  0  0  0  0  0  0  0
   91.6359   47.2899  264.3503 H   0  0  0  0  0  0  0  0  0  0  0  0
   89.5881   48.1301  267.3889 H   0  0  0  0  0  0  0  0  0  0  0  0
   91.0918   50.0937  267.6338 H   0  0  0  0  0  0  0  0  0  0  0  0
   95.2015   51.4251  267.0110 H   0  0  0  0  0  0  0  0  0  0  0  0
   95.6889   53.6450  268.0910 H   0  0  0  0  0  0  0  0  0  0  0  0
   91.9320   50.9279  269.7560 H   0  0  0  0  0  0  0  0  0  0  0  0
   91.1681   53.2625  270.6578 H   0  0  0  0  0  0  0  0  0  0  0  0
   92.2586   52.3737  271.8496 H   0  0  0  0  0  0  0  0  0  0  0  0
   92.0379   54.8982  272.4115 H   0  0  0  0  0  0  0  0  0  0  0  0
   93.8430   56.1624  271.5829 H   0  0  0  0  0  0  0  0  0  0  0  0
   97.5175   48.6033  267.7122 H   0  0  0  0  0  0  0  0  0  0  0  0
   97.0679   46.4111  266.7265 H   0  0  0  0  0  0  0  0  0  0  0  0
   92.4727   46.3040  266.2002 H   0  0  0  0  0  0  0  0  0  0  0  0
  1  2  1  0
  2  3  2  0
  2  4  2  0
  2  5  1  0
  5  6  2  0
  6  7  1  0
  7  8  2  0
  8  9  1  0
  9 10  2  0
 10 11  1  0
 11 12  1  0
 12 13  2  0
 13 14  1  0
 14 15  1  0
 15 16  2  0
 16 17  1  0
 17 18  2  0
 18 19  1  0
 19 20  2  0
 19 21  1  0
 21 22  1  0
 22 23  2  0
 23 24  1  0
 14 25  2  0
 25 26  1  0
 26 27  2  0
 27 28  1  0
 28 29  2  0
 29 30  1  0
 30 31  2  0
 10  5  1  0
 31 12  1  0
 20 15  1  0
 30 25  1  0
 24 18  1  0
  1 32  1  0
  1 33  1  0
  1 34  1  0
  6 35  1  0
  7 36  1  0
  9 37  1  0
 11 38  1  0
 13 39  1  0
 16 40  1  0
 17 41  1  0
 20 42  1  0
 21 43  1  0
 21 44  1  0
 22 45  1  0
 23 46  1  0
 27 47  1  0
 28 48  1  0
 31 49  1  0
M  END
$$$$
