
     RDKit          3D

 47 50  0  0  0  0  0  0  0  0999 V2000
   88.5273   46.1288  268.1891 C   0  0  0  0  0  0  0  0  0  0  0  0
   87.5746   46.8938  266.9301 S   0  0  0  0  0  6  0  0  0  0  0  0
   86.2894   46.0642  266.8232 O   0  0  0  0  0  0  0  0  0  0  0  0
   87.1136   48.2548  267.2912 O   0  0  0  0  0  0  0  0  0  0  0  0
   88.4842   46.8249  265.4338 C   0  0  0  0  0  0  0  0  0  0  0  0
   87.8766   46.2699  264.3101 C   0  0  0  0  0  0  0  0  0  0  0  0
   88.6310   46.2124  263.1607 C   0  0  0  0  0  0  0  0  0  0  0  0
   89.9019   46.6747  263.1315 N   0  0  0  0  0  0  0  0  0  0  0  0
   90.4528   47.2082  264.2499 C   0  0  0  0  0  0  0  0  0  0  0  0
   89.7595   47.3030  265.4504 C   0  0  0  0  0  0  0  0  0  0  0  0
   90.2825   47.8959  266.6129 N   0  0  0  0  0  0  0  0  0  0  0  0
   91.6443   48.1714  266.8514 C   0  0  0  0  0  0  0  0  0  0  0  0
   92.0226   49.3373  267.4520 C   0  0  0  0  0  0  0  0  0  0  0  0
   93.3496   49.6549  267.7713 C   0  0  0  0  0  0  0  0  0  0  0  0
   93.6188   50.9654  268.3384 C   0  0  0  0  0  0  0  0  0  0  0  0
   94.6991   51.2402  269.1332 C   0  0  0  0  0  0  0  0  0  0  0  0
   94.8490   52.5228  269.6570 C   0  0  0  0  0  0  0  0  0  0  0  0
   93.9651   53.5350  269.4217 C   0  0  0  0  0  0  0  0  0  0  0  0
   94.0640   54.9123  269.9506 C   0  0  0  0  0  0  0  0  0  0  0  0
   93.7886   55.7829  268.9317 F   0  0  0  0  0  0  0  0  0  0  0  0
   93.1028   55.0883  270.9458 F   0  0  0  0  0  0  0  0  0  0  0  0
   95.6821   55.3150  270.5861 S   0  0  0  0  0  0  0  0  0  0  0  0
   92.8467   53.2730  268.6097 C   0  0  0  0  0  0  0  0  0  0  0  0
   92.7087   52.0176  268.0996 C   0  0  0  0  0  0  0  0  0  0  0  0
   94.3222   48.7501  267.4744 C   0  0  0  0  0  0  0  0  0  0  0  0
   95.6324   48.9705  267.7833 N   0  0  0  0  0  0  0  0  0  0  0  0
   96.5357   48.0451  267.5019 C   0  0  0  0  0  0  0  0  0  0  0  0
   96.1710   46.8414  266.8884 C   0  0  0  0  0  0  0  0  0  0  0  0
   94.9026   46.6126  266.5813 N   0  0  0  0  0  0  0  0  0  0  0  0
   93.9679   47.5665  266.8743 C   0  0  0  0  0  0  0  0  0  0  0  0
   92.6500   47.2780  266.5642 C   0  0  0  0  0  0  0  0  0  0  0  0
   88.0856   45.1622  268.4507 H   0  0  0  0  0  0  0  0  0  0  0  0
   89.5639   45.9126  267.8112 H   0  0  0  0  0  0  0  0  0  0  0  0
   88.5292   46.7484  269.1166 H   0  0  0  0  0  0  0  0  0  0  0  0
   86.8505   45.9018  264.3496 H   0  0  0  0  0  0  0  0  0  0  0  0
   88.1714   45.7839  262.2617 H   0  0  0  0  0  0  0  0  0  0  0  0
   91.4825   47.5890  264.2229 H   0  0  0  0  0  0  0  0  0  0  0  0
   89.5672   48.1983  267.3564 H   0  0  0  0  0  0  0  0  0  0  0  0
   91.1919   50.0210  267.6765 H   0  0  0  0  0  0  0  0  0  0  0  0
   95.4511   50.4788  269.3698 H   0  0  0  0  0  0  0  0  0  0  0  0
   95.7145   52.7082  270.2797 H   0  0  0  0  0  0  0  0  0  0  0  0
   95.5048   56.4482  271.4454 H   0  0  0  0  0  0  0  0  0  0  0  0
   92.1227   54.0650  268.4214 H   0  0  0  0  0  0  0  0  0  0  0  0
   91.8097   51.8786  267.4755 H   0  0  0  0  0  0  0  0  0  0  0  0
   97.6081   48.1692  267.7419 H   0  0  0  0  0  0  0  0  0  0  0  0
   96.9406   46.0912  266.6898 H   0  0  0  0  0  0  0  0  0  0  0  0
   92.3835   46.3270  266.0889 H   0  0  0  0  0  0  0  0  0  0  0  0
  1  2  1  0
  2  3  2  0
  2  4  2  0
  2  5  1  0
  5  6  2  0
  6  7  1  0
  7  8  2  0
  8  9  1  0
  9 10  2  0
 10 11  1  0
 11 12  1  0
 12 13  2  0
 13 14  1  0
 14 15  1  0
 15 16  2  0
 16 17  1  0
 17 18  2  0
 18 19  1  0
 19 20  1  0
 19 21  1  0
 19 22  1  0
 18 23  1  0
 23 24  2  0
 14 25  2  0
 25 26  1  0
 26 27  2  0
 27 28  1  0
 28 29  2  0
 29 30  1  0
 30 31  2  0
 10  5  1  0
 31 12  1  0
 24 15  1  0
 30 25  1  0
  1 32  1  0
  1 33  1  0
  1 34  1  0
  6 35  1  0
  7 36  1  0
  9 37  1  0
 11 38  1  0
 13 39  1  0
 16 40  1  0
 17 41  1  0
 22 42  1  0
 23 43  1  0
 24 44  1  0
 27 45  1  0
 28 46  1  0
 31 47  1  0
M  END
$$$$
