
     RDKit          3D

 45 49  0  0  0  0  0  0  0  0999 V2000
   87.1760   48.6852  267.2317 C   0  0  0  0  0  0  0  0  0  0  0  0
   87.4114   47.0072  266.7876 S   0  0  0  0  0  6  0  0  0  0  0  0
   87.9202   46.2234  267.9790 O   0  0  0  0  0  0  0  0  0  0  0  0
   86.0800   46.4034  266.4493 O   0  0  0  0  0  0  0  0  0  0  0  0
   88.4609   46.7805  265.4064 C   0  0  0  0  0  0  0  0  0  0  0  0
   87.9775   46.1950  264.2689 C   0  0  0  0  0  0  0  0  0  0  0  0
   88.8030   46.0280  263.1806 C   0  0  0  0  0  0  0  0  0  0  0  0
   90.0789   46.4476  263.2572 N   0  0  0  0  0  0  0  0  0  0  0  0
   90.5719   47.0220  264.3574 C   0  0  0  0  0  0  0  0  0  0  0  0
   89.7750   47.2008  265.4573 C   0  0  0  0  0  0  0  0  0  0  0  0
   90.2204   47.8235  266.6472 N   0  0  0  0  0  0  0  0  0  0  0  0
   91.5846   48.1112  266.8724 C   0  0  0  0  0  0  0  0  0  0  0  0
   91.9643   49.3253  267.4639 C   0  0  0  0  0  0  0  0  0  0  0  0
   93.2590   49.6642  267.7502 C   0  0  0  0  0  0  0  0  0  0  0  0
   93.5973   50.9640  268.3765 C   0  0  0  0  0  0  0  0  0  0  0  0
   94.6425   51.7347  267.9188 C   0  0  0  0  0  0  0  0  0  0  0  0
   94.9427   52.9476  268.5184 C   0  0  0  0  0  0  0  0  0  0  0  0
   94.2228   53.4313  269.5819 C   0  0  0  0  0  0  0  0  0  0  0  0
   94.2800   54.5470  270.3484 N   0  0  0  0  0  0  0  0  0  0  0  0
   93.3173   54.4980  271.2573 N   0  0  0  0  0  0  0  0  0  0  0  0
   92.6544   53.3678  271.0746 N   0  0  0  0  0  0  0  0  0  0  0  0
   93.1738   52.6680  270.0488 C   0  0  0  0  0  0  0  0  0  0  0  0
   92.8725   51.4467  269.4440 C   0  0  0  0  0  0  0  0  0  0  0  0
   94.2542   48.7579  267.4390 C   0  0  0  0  0  0  0  0  0  0  0  0
   95.5328   49.0890  267.7194 N   0  0  0  0  0  0  0  0  0  0  0  0
   96.4979   48.2072  267.4164 C   0  0  0  0  0  0  0  0  0  0  0  0
   96.2031   47.0026  266.8385 C   0  0  0  0  0  0  0  0  0  0  0  0
   94.9389   46.6469  266.5484 N   0  0  0  0  0  0  0  0  0  0  0  0
   93.9599   47.5468  266.8582 C   0  0  0  0  0  0  0  0  0  0  0  0
   92.6297   47.2520  266.5891 C   0  0  0  0  0  0  0  0  0  0  0  0
   86.0958   48.9278  267.1877 H   0  0  0  0  0  0  0  0  0  0  0  0
   87.7031   49.3750  266.5399 H   0  0  0  0  0  0  0  0  0  0  0  0
   87.4651   48.8553  268.2969 H   0  0  0  0  0  0  0  0  0  0  0  0
   86.9336   45.8532  264.2087 H   0  0  0  0  0  0  0  0  0  0  0  0
   88.4562   45.5693  262.2652 H   0  0  0  0  0  0  0  0  0  0  0  0
   91.6044   47.3571  264.3382 H   0  0  0  0  0  0  0  0  0  0  0  0
   89.5336   48.0756  267.3758 H   0  0  0  0  0  0  0  0  0  0  0  0
   91.1703   50.0098  267.6946 H   0  0  0  0  0  0  0  0  0  0  0  0
   95.2211   51.3604  267.0748 H   0  0  0  0  0  0  0  0  0  0  0  0
   95.7657   53.5655  268.1662 H   0  0  0  0  0  0  0  0  0  0  0  0
   93.1447   55.2433  271.9763 H   0  0  0  0  0  0  0  0  0  0  0  0
   92.0575   50.8560  269.8085 H   0  0  0  0  0  0  0  0  0  0  0  0
   97.5269   48.4949  267.6517 H   0  0  0  0  0  0  0  0  0  0  0  0
   97.0296   46.3290  266.6160 H   0  0  0  0  0  0  0  0  0  0  0  0
   92.3930   46.2822  266.1556 H   0  0  0  0  0  0  0  0  0  0  0  0
  1  2  1  0
  2  3  2  0
  2  4  2  0
  2  5  1  0
  5  6  2  0
  6  7  1  0
  7  8  2  0
  8  9  1  0
  9 10  2  0
 10 11  1  0
 11 12  1  0
 12 13  2  0
 13 14  1  0
 14 15  1  0
 15 16  1  0
 16 17  2  0
 17 18  1  0
 18 19  2  0
 19 20  1  0
 20 21  1  0
 21 22  2  0
 22 23  1  0
 14 24  2  0
 24 25  1  0
 25 26  2  0
 26 27  1  0
 27 28  2  0
 28 29  1  0
 29 30  2  0
 10  5  1  0
 30 12  1  0
 23 15  2  0
 29 24  1  0
 22 18  1  0
  1 31  1  0
  1 32  1  0
  1 33  1  0
  6 34  1  0
  7 35  1  0
  9 36  1  0
 11 37  1  0
 13 38  1  0
 16 39  1  0
 17 40  1  0
 20 41  1  0
 23 42  1  0
 26 43  1  0
 27 44  1  0
 30 45  1  0
M  END
$$$$
