
     RDKit          3D

 40 42  0  0  0  0  0  0  0  0999 V2000
  -16.1448  -23.6414  -28.1791 C   0  0  0  0  0  0  0  0  0  0  0  0
  -14.8167  -23.7344  -27.8000 O   0  0  0  0  0  0  0  0  0  0  0  0
  -14.5955  -23.3621  -26.4932 C   0  0  0  0  0  0  0  0  0  0  0  0
  -15.3699  -24.1984  -25.5309 C   0  0  0  0  0  0  0  0  0  0  0  0
  -13.0998  -23.5646  -26.2134 C   0  0  0  0  0  0  0  0  0  0  0  0
  -14.8533  -21.9033  -26.3087 C   0  0  0  0  0  0  0  0  0  0  0  0
  -14.3127  -20.9660  -27.1516 C   0  0  0  0  0  0  0  0  0  0  0  0
  -14.5531  -19.6235  -26.9663 C   0  0  0  0  0  0  0  0  0  0  0  0
  -15.3480  -19.1862  -25.9257 C   0  0  0  0  0  0  0  0  0  0  0  0
  -15.5638  -17.7607  -25.7392 C   0  0  0  0  0  0  0  0  0  0  0  0
  -14.9303  -16.9359  -26.6012 N   0  0  0  0  0  0  0  0  0  0  0  0
  -15.0344  -15.6158  -26.5377 C   0  0  0  0  0  0  0  0  0  0  0  0
  -14.3759  -14.7713  -27.4337 C   0  0  0  0  0  0  0  0  0  0  0  0
  -14.5518  -13.4173  -27.2752 C   0  0  0  0  0  0  0  0  0  0  0  0
  -15.3419  -12.8774  -26.2815 C   0  0  0  0  0  0  0  0  0  0  0  0
  -15.4906  -11.5183  -26.1568 F   0  0  0  0  0  0  0  0  0  0  0  0
  -15.9755  -13.7207  -25.4162 C   0  0  0  0  0  0  0  0  0  0  0  0
  -15.8326  -15.0960  -25.5306 C   0  0  0  0  0  0  0  0  0  0  0  0
  -16.4871  -15.9245  -24.6420 C   0  0  0  0  0  0  0  0  0  0  0  0
  -17.2034  -15.4081  -23.7412 O   0  0  0  0  0  0  0  0  0  0  0  0
  -16.3330  -17.2563  -24.7715 N   0  0  0  0  0  0  0  0  0  0  0  0
  -15.8997  -20.0904  -25.0713 C   0  0  0  0  0  0  0  0  0  0  0  0
  -15.6368  -21.4489  -25.2859 C   0  0  0  0  0  0  0  0  0  0  0  0
  -16.7654  -24.3165  -27.5239 H   0  0  0  0  0  0  0  0  0  0  0  0
  -16.5335  -22.6174  -28.0999 H   0  0  0  0  0  0  0  0  0  0  0  0
  -16.2344  -24.0451  -29.2165 H   0  0  0  0  0  0  0  0  0  0  0  0
  -15.2928  -25.2714  -25.8341 H   0  0  0  0  0  0  0  0  0  0  0  0
  -16.4576  -23.9420  -25.5088 H   0  0  0  0  0  0  0  0  0  0  0  0
  -14.9783  -24.0666  -24.4963 H   0  0  0  0  0  0  0  0  0  0  0  0
  -12.8327  -22.8212  -25.4442 H   0  0  0  0  0  0  0  0  0  0  0  0
  -12.9998  -24.6173  -25.8927 H   0  0  0  0  0  0  0  0  0  0  0  0
  -12.5571  -23.3418  -27.1471 H   0  0  0  0  0  0  0  0  0  0  0  0
  -13.6781  -21.3022  -27.9911 H   0  0  0  0  0  0  0  0  0  0  0  0
  -14.0943  -18.9067  -27.6587 H   0  0  0  0  0  0  0  0  0  0  0  0
  -13.7735  -15.2435  -28.1916 H   0  0  0  0  0  0  0  0  0  0  0  0
  -14.0418  -12.7521  -27.9645 H   0  0  0  0  0  0  0  0  0  0  0  0
  -16.6133  -13.3218  -24.6197 H   0  0  0  0  0  0  0  0  0  0  0  0
  -16.8467  -17.8914  -24.0830 H   0  0  0  0  0  0  0  0  0  0  0  0
  -16.5474  -19.8105  -24.2220 H   0  0  0  0  0  0  0  0  0  0  0  0
  -16.1003  -22.1578  -24.5838 H   0  0  0  0  0  0  0  0  0  0  0  0
  1  2  1  0
  2  3  1  0
  3  4  1  0
  3  5  1  0
  3  6  1  0
  6  7  2  0
  7  8  1  0
  8  9  2  0
  9 10  1  0
 10 11  2  0
 11 12  1  0
 12 13  2  0
 13 14  1  0
 14 15  2  0
 15 16  1  0
 15 17  1  0
 17 18  2  0
 18 19  1  0
 19 20  2  0
 19 21  1  0
  9 22  1  0
 22 23  2  0
 23  6  1  0
 21 10  1  0
 18 12  1  0
  1 24  1  0
  1 25  1  0
  1 26  1  0
  4 27  1  0
  4 28  1  0
  4 29  1  0
  5 30  1  0
  5 31  1  0
  5 32  1  0
  7 33  1  0
  8 34  1  0
 13 35  1  0
 14 36  1  0
 17 37  1  0
 21 38  1  0
 22 39  1  0
 23 40  1  0
M  END
$$$$
