
     RDKit          3D

 37 39  0  0  0  0  0  0  0  0999 V2000
  -15.4366  -24.1496  -25.5213 C   0  0  0  0  0  0  0  0  0  0  0  0
  -14.4438  -23.3655  -26.3744 C   0  0  0  0  0  0  0  0  0  0  0  0
  -13.1207  -23.3594  -25.5760 C   0  0  0  0  0  0  0  0  0  0  0  0
  -14.3271  -23.9548  -27.5907 O   0  0  0  0  0  0  0  0  0  0  0  0
  -14.9013  -21.9354  -26.4051 C   0  0  0  0  0  0  0  0  0  0  0  0
  -15.4229  -21.3945  -25.2581 C   0  0  0  0  0  0  0  0  0  0  0  0
  -15.7446  -20.0614  -25.1971 C   0  0  0  0  0  0  0  0  0  0  0  0
  -15.5541  -19.2286  -26.2738 C   0  0  0  0  0  0  0  0  0  0  0  0
  -15.8143  -17.7726  -26.0674 C   0  0  0  0  0  0  0  0  0  0  0  0
  -15.1447  -16.8964  -26.8832 N   0  0  0  0  0  0  0  0  0  0  0  0
  -15.1935  -15.5758  -26.5696 C   0  0  0  0  0  0  0  0  0  0  0  0
  -14.4654  -14.6707  -27.3656 C   0  0  0  0  0  0  0  0  0  0  0  0
  -13.7833  -15.1729  -28.4405 F   0  0  0  0  0  0  0  0  0  0  0  0
  -14.4305  -13.3189  -27.0599 C   0  0  0  0  0  0  0  0  0  0  0  0
  -15.1393  -12.8841  -25.9451 C   0  0  0  0  0  0  0  0  0  0  0  0
  -15.8512  -13.7301  -25.1647 C   0  0  0  0  0  0  0  0  0  0  0  0
  -15.8696  -15.0951  -25.4962 C   0  0  0  0  0  0  0  0  0  0  0  0
  -16.5417  -15.9925  -24.6947 C   0  0  0  0  0  0  0  0  0  0  0  0
  -17.1778  -15.5743  -23.7069 O   0  0  0  0  0  0  0  0  0  0  0  0
  -16.4868  -17.3167  -25.0151 N   0  0  0  0  0  0  0  0  0  0  0  0
  -15.0555  -19.7232  -27.4167 C   0  0  0  0  0  0  0  0  0  0  0  0
  -14.7330  -21.0826  -27.4720 C   0  0  0  0  0  0  0  0  0  0  0  0
  -15.4268  -25.2244  -25.7519 H   0  0  0  0  0  0  0  0  0  0  0  0
  -16.4505  -23.7356  -25.6033 H   0  0  0  0  0  0  0  0  0  0  0  0
  -15.1422  -24.0532  -24.4311 H   0  0  0  0  0  0  0  0  0  0  0  0
  -13.4358  -23.2663  -24.5232 H   0  0  0  0  0  0  0  0  0  0  0  0
  -12.5471  -22.4285  -25.8328 H   0  0  0  0  0  0  0  0  0  0  0  0
  -12.5892  -24.2528  -25.8198 H   0  0  0  0  0  0  0  0  0  0  0  0
  -14.9814  -23.6064  -28.2637 H   0  0  0  0  0  0  0  0  0  0  0  0
  -15.5610  -22.0542  -24.4107 H   0  0  0  0  0  0  0  0  0  0  0  0
  -16.1489  -19.6984  -24.2711 H   0  0  0  0  0  0  0  0  0  0  0  0
  -13.8735  -12.6224  -27.6380 H   0  0  0  0  0  0  0  0  0  0  0  0
  -15.1038  -11.8356  -25.7143 H   0  0  0  0  0  0  0  0  0  0  0  0
  -16.4446  -13.4056  -24.2852 H   0  0  0  0  0  0  0  0  0  0  0  0
  -17.0266  -17.9542  -24.3754 H   0  0  0  0  0  0  0  0  0  0  0  0
  -14.9042  -19.1271  -28.2833 H   0  0  0  0  0  0  0  0  0  0  0  0
  -14.3217  -21.5212  -28.4021 H   0  0  0  0  0  0  0  0  0  0  0  0
  1  2  1  0
  2  3  1  0
  2  4  1  0
  2  5  1  0
  5  6  2  0
  6  7  1  0
  7  8  2  0
  8  9  1  0
  9 10  2  0
 10 11  1  0
 11 12  2  0
 12 13  1  0
 12 14  1  0
 14 15  2  0
 15 16  1  0
 16 17  2  0
 17 18  1  0
 18 19  2  0
 18 20  1  0
  8 21  1  0
 21 22  2  0
 22  5  1  0
 20  9  1  0
 17 11  1  0
  1 23  1  0
  1 24  1  0
  1 25  1  0
  3 26  1  0
  3 27  1  0
  3 28  1  0
  4 29  1  0
  6 30  1  0
  7 31  1  0
 14 32  1  0
 15 33  1  0
 16 34  1  0
 20 35  1  0
 21 36  1  0
 22 37  1  0
M  END
$$$$
