
     RDKit          3D

 43 45  0  0  0  0  0  0  0  0999 V2000
  -13.0950  -25.9490  -26.8858 C   0  0  0  0  0  0  0  0  0  0  0  0
  -13.9070  -25.5551  -27.8440 C   0  0  0  0  0  0  0  0  0  0  0  0
  -15.3081  -25.3759  -27.6108 N   0  0  0  0  0  4  0  0  0  0  0  0
  -15.7386  -26.1282  -26.4441 C   0  0  0  0  0  0  0  0  0  0  0  0
  -15.6126  -23.9681  -27.4307 C   0  0  0  0  0  0  0  0  0  0  0  0
  -14.5487  -23.3116  -26.5749 C   0  0  0  0  0  0  0  0  0  0  0  0
  -14.7975  -21.8870  -26.3533 C   0  0  0  0  0  0  0  0  0  0  0  0
  -14.2794  -20.9451  -27.2429 C   0  0  0  0  0  0  0  0  0  0  0  0
  -14.5280  -19.5897  -27.0139 C   0  0  0  0  0  0  0  0  0  0  0  0
  -15.2709  -19.1416  -25.9352 C   0  0  0  0  0  0  0  0  0  0  0  0
  -15.4765  -17.7232  -25.7778 C   0  0  0  0  0  0  0  0  0  0  0  0
  -14.9600  -16.8540  -26.6543 N   0  0  0  0  0  0  0  0  0  0  0  0
  -15.1185  -15.5263  -26.5578 C   0  0  0  0  0  0  0  0  0  0  0  0
  -14.5525  -14.7016  -27.5045 C   0  0  0  0  0  0  0  0  0  0  0  0
  -14.7261  -13.3284  -27.3899 C   0  0  0  0  0  0  0  0  0  0  0  0
  -15.4539  -12.7977  -26.3448 C   0  0  0  0  0  0  0  0  0  0  0  0
  -15.5971  -11.4539  -26.2732 F   0  0  0  0  0  0  0  0  0  0  0  0
  -16.0028  -13.6664  -25.4194 C   0  0  0  0  0  0  0  0  0  0  0  0
  -15.8487  -15.0356  -25.5048 C   0  0  0  0  0  0  0  0  0  0  0  0
  -16.3916  -15.9055  -24.5883 C   0  0  0  0  0  0  0  0  0  0  0  0
  -17.0499  -15.4384  -23.6416 O   0  0  0  0  0  0  0  0  0  0  0  0
  -16.1884  -17.2432  -24.7513 N   0  0  0  0  0  0  0  0  0  0  0  0
  -15.7568  -20.1069  -25.0918 C   0  0  0  0  0  0  0  0  0  0  0  0
  -15.5299  -21.4558  -25.2885 C   0  0  0  0  0  0  0  0  0  0  0  0
  -12.0476  -26.0724  -27.0998 H   0  0  0  0  0  0  0  0  0  0  0  0
  -13.4392  -26.1555  -25.8839 H   0  0  0  0  0  0  0  0  0  0  0  0
  -13.5062  -25.3627  -28.8294 H   0  0  0  0  0  0  0  0  0  0  0  0
  -15.8575  -25.7366  -28.4224 H   0  0  0  0  0  0  0  0  0  0  0  0
  -15.4132  -25.6453  -25.4992 H   0  0  0  0  0  0  0  0  0  0  0  0
  -15.3100  -27.1511  -26.4429 H   0  0  0  0  0  0  0  0  0  0  0  0
  -16.8408  -26.2427  -26.5023 H   0  0  0  0  0  0  0  0  0  0  0  0
  -15.6380  -23.5248  -28.4471 H   0  0  0  0  0  0  0  0  0  0  0  0
  -16.6266  -23.8522  -27.0122 H   0  0  0  0  0  0  0  0  0  0  0  0
  -14.3556  -23.8924  -25.6503 H   0  0  0  0  0  0  0  0  0  0  0  0
  -13.5921  -23.4001  -27.1700 H   0  0  0  0  0  0  0  0  0  0  0  0
  -13.6981  -21.2657  -28.0903 H   0  0  0  0  0  0  0  0  0  0  0  0
  -14.1351  -18.8474  -27.6916 H   0  0  0  0  0  0  0  0  0  0  0  0
  -13.9931  -15.1629  -28.3020 H   0  0  0  0  0  0  0  0  0  0  0  0
  -14.2889  -12.6676  -28.1237 H   0  0  0  0  0  0  0  0  0  0  0  0
  -16.5708  -13.2702  -24.6019 H   0  0  0  0  0  0  0  0  0  0  0  0
  -16.6223  -17.8428  -24.0291 H   0  0  0  0  0  0  0  0  0  0  0  0
  -16.3393  -19.8095  -24.2400 H   0  0  0  0  0  0  0  0  0  0  0  0
  -15.9360  -22.1716  -24.5938 H   0  0  0  0  0  0  0  0  0  0  0  0
  1  2  2  3
  2  3  1  0
  3  4  1  0
  3  5  1  0
  5  6  1  0
  6  7  1  0
  7  8  2  0
  8  9  1  0
  9 10  2  0
 10 11  1  0
 11 12  2  0
 12 13  1  0
 13 14  2  0
 14 15  1  0
 15 16  2  0
 16 17  1  0
 16 18  1  0
 18 19  2  0
 19 20  1  0
 20 21  2  0
 20 22  1  0
 10 23  1  0
 23 24  2  0
 24  7  1  0
 22 11  1  0
 19 13  1  0
  1 25  1  0
  1 26  1  0
  2 27  1  0
  3 28  1  0
  4 29  1  0
  4 30  1  0
  4 31  1  0
  5 32  1  0
  5 33  1  0
  6 34  1  0
  6 35  1  0
  8 36  1  0
  9 37  1  0
 14 38  1  0
 15 39  1  0
 18 40  1  0
 22 41  1  0
 23 42  1  0
 24 43  1  0
M  CHG  1   3   1
M  END
$$$$
