
     RDKit          3D

 36 38  0  0  0  0  0  0  0  0999 V2000
  -16.0253  -23.9966  -26.8440 C   0  0  0  0  0  0  0  0  0  0  0  0
  -14.6470  -23.3658  -26.6456 C   0  0  0  0  0  0  0  0  0  0  0  0
  -13.9327  -23.9867  -25.4810 C   0  0  0  0  0  0  0  0  0  0  0  0
  -14.9096  -21.9028  -26.3844 C   0  0  0  0  0  0  0  0  0  0  0  0
  -14.4110  -20.9692  -27.2629 C   0  0  0  0  0  0  0  0  0  0  0  0
  -14.6551  -19.6349  -27.0173 C   0  0  0  0  0  0  0  0  0  0  0  0
  -15.3791  -19.1984  -25.9266 C   0  0  0  0  0  0  0  0  0  0  0  0
  -15.6054  -17.7811  -25.7175 C   0  0  0  0  0  0  0  0  0  0  0  0
  -15.0923  -16.9155  -26.6118 N   0  0  0  0  0  0  0  0  0  0  0  0
  -15.2155  -15.5907  -26.5551 C   0  0  0  0  0  0  0  0  0  0  0  0
  -14.6522  -14.8019  -27.5203 C   0  0  0  0  0  0  0  0  0  0  0  0
  -14.7878  -13.4481  -27.4470 C   0  0  0  0  0  0  0  0  0  0  0  0
  -15.4878  -12.8908  -26.4064 C   0  0  0  0  0  0  0  0  0  0  0  0
  -16.0497  -13.6998  -25.4414 C   0  0  0  0  0  0  0  0  0  0  0  0
  -15.9314  -15.0609  -25.4866 C   0  0  0  0  0  0  0  0  0  0  0  0
  -16.4598  -15.9220  -24.5688 C   0  0  0  0  0  0  0  0  0  0  0  0
  -17.1057  -15.4200  -23.6072 O   0  0  0  0  0  0  0  0  0  0  0  0
  -16.2940  -17.2619  -24.6907 N   0  0  0  0  0  0  0  0  0  0  0  0
  -15.8657  -20.1543  -25.0647 C   0  0  0  0  0  0  0  0  0  0  0  0
  -15.6372  -21.5162  -25.2828 C   0  0  0  0  0  0  0  0  0  0  0  0
  -16.2280  -23.9264  -27.9453 H   0  0  0  0  0  0  0  0  0  0  0  0
  -16.8116  -23.3807  -26.3437 H   0  0  0  0  0  0  0  0  0  0  0  0
  -16.0560  -25.0368  -26.4738 H   0  0  0  0  0  0  0  0  0  0  0  0
  -14.0489  -23.4706  -27.5732 H   0  0  0  0  0  0  0  0  0  0  0  0
  -13.3178  -23.2047  -24.9715 H   0  0  0  0  0  0  0  0  0  0  0  0
  -13.2120  -24.7576  -25.8595 H   0  0  0  0  0  0  0  0  0  0  0  0
  -14.6167  -24.4849  -24.7750 H   0  0  0  0  0  0  0  0  0  0  0  0
  -13.8366  -21.2760  -28.1324 H   0  0  0  0  0  0  0  0  0  0  0  0
  -14.2562  -18.8849  -27.7204 H   0  0  0  0  0  0  0  0  0  0  0  0
  -14.1004  -15.2312  -28.3416 H   0  0  0  0  0  0  0  0  0  0  0  0
  -14.3417  -12.8318  -28.2105 H   0  0  0  0  0  0  0  0  0  0  0  0
  -15.6001  -11.8140  -26.3412 H   0  0  0  0  0  0  0  0  0  0  0  0
  -16.6048  -13.2785  -24.6139 H   0  0  0  0  0  0  0  0  0  0  0  0
  -16.7150  -17.8797  -23.9666 H   0  0  0  0  0  0  0  0  0  0  0  0
  -16.4416  -19.8495  -24.1926 H   0  0  0  0  0  0  0  0  0  0  0  0
  -16.0407  -22.2337  -24.5760 H   0  0  0  0  0  0  0  0  0  0  0  0
  1  2  1  0
  2  3  1  0
  2  4  1  0
  4  5  2  0
  5  6  1  0
  6  7  2  0
  7  8  1  0
  8  9  2  0
  9 10  1  0
 10 11  2  0
 11 12  1  0
 12 13  2  0
 13 14  1  0
 14 15  2  0
 15 16  1  0
 16 17  2  0
 16 18  1  0
  7 19  1  0
 19 20  2  0
 20  4  1  0
 18  8  1  0
 15 10  1  0
  1 21  1  0
  1 22  1  0
  1 23  1  0
  2 24  1  0
  3 25  1  0
  3 26  1  0
  3 27  1  0
  5 28  1  0
  6 29  1  0
 11 30  1  0
 12 31  1  0
 13 32  1  0
 14 33  1  0
 18 34  1  0
 19 35  1  0
 20 36  1  0
M  END
$$$$
