
     RDKit          3D

 52 55  0  0  0  0  0  0  0  0999 V2000
  -13.9527  -15.1268  -28.6622 C   0  0  0  0  0  0  0  0  0  0  0  0
  -14.6276  -14.6375  -27.4401 C   0  0  0  0  0  0  0  0  0  0  0  0
  -14.7654  -13.2938  -27.1895 C   0  0  0  0  0  0  0  0  0  0  0  0
  -15.3948  -12.8451  -26.0499 C   0  0  0  0  0  0  0  0  0  0  0  0
  -15.5447  -11.5324  -25.7773 F   0  0  0  0  0  0  0  0  0  0  0  0
  -15.8816  -13.7819  -25.1695 C   0  0  0  0  0  0  0  0  0  0  0  0
  -15.7421  -15.1338  -25.4233 C   0  0  0  0  0  0  0  0  0  0  0  0
  -16.2256  -16.0642  -24.5490 C   0  0  0  0  0  0  0  0  0  0  0  0
  -16.8030  -15.6838  -23.5034 O   0  0  0  0  0  0  0  0  0  0  0  0
  -16.0655  -17.3773  -24.8400 N   0  0  0  0  0  0  0  0  0  0  0  0
  -15.4569  -17.8321  -25.9419 C   0  0  0  0  0  0  0  0  0  0  0  0
  -15.3001  -19.2688  -26.2272 C   0  0  0  0  0  0  0  0  0  0  0  0
  -14.6564  -19.6816  -27.3927 C   0  0  0  0  0  0  0  0  0  0  0  0
  -14.5088  -21.0237  -27.6610 C   0  0  0  0  0  0  0  0  0  0  0  0
  -14.9780  -22.0040  -26.8126 C   0  0  0  0  0  0  0  0  0  0  0  0
  -14.7731  -23.4150  -27.1848 C   0  0  0  0  0  0  0  0  0  0  0  0
  -13.8661  -24.0350  -26.1592 C   0  0  0  0  0  0  0  0  0  0  0  0
  -13.8980  -25.5206  -26.1279 C   0  0  0  0  0  0  0  0  0  0  0  0
  -15.2856  -25.9556  -26.0054 N   0  0  0  0  0  4  0  0  0  0  0  0
  -15.3912  -27.3450  -25.6654 C   0  0  0  0  0  0  0  0  0  0  0  0
  -15.9040  -25.6455  -27.2845 C   0  0  0  0  0  0  0  0  0  0  0  0
  -17.2785  -26.2715  -27.4149 C   0  0  0  0  0  0  0  0  0  0  0  0
  -16.0646  -24.1633  -27.3721 C   0  0  0  0  0  0  0  0  0  0  0  0
  -15.6103  -21.6087  -25.6678 C   0  0  0  0  0  0  0  0  0  0  0  0
  -15.7570  -20.2586  -25.4010 C   0  0  0  0  0  0  0  0  0  0  0  0
  -14.9764  -16.9136  -26.8109 N   0  0  0  0  0  0  0  0  0  0  0  0
  -15.1144  -15.6047  -26.5599 C   0  0  0  0  0  0  0  0  0  0  0  0
  -13.4781  -14.2620  -29.1721 H   0  0  0  0  0  0  0  0  0  0  0  0
  -13.1646  -15.8619  -28.4572 H   0  0  0  0  0  0  0  0  0  0  0  0
  -14.7239  -15.5505  -29.3277 H   0  0  0  0  0  0  0  0  0  0  0  0
  -14.3890  -12.5621  -27.8701 H   0  0  0  0  0  0  0  0  0  0  0  0
  -16.3920  -13.5159  -24.2454 H   0  0  0  0  0  0  0  0  0  0  0  0
  -16.4399  -18.0690  -24.1629 H   0  0  0  0  0  0  0  0  0  0  0  0
  -14.2919  -18.9129  -28.0517 H   0  0  0  0  0  0  0  0  0  0  0  0
  -14.0002  -21.2915  -28.5818 H   0  0  0  0  0  0  0  0  0  0  0  0
  -14.2387  -23.4464  -28.1522 H   0  0  0  0  0  0  0  0  0  0  0  0
  -12.8090  -23.7308  -26.4181 H   0  0  0  0  0  0  0  0  0  0  0  0
  -14.0582  -23.6445  -25.1573 H   0  0  0  0  0  0  0  0  0  0  0  0
  -13.5028  -25.9990  -27.0533 H   0  0  0  0  0  0  0  0  0  0  0  0
  -13.3475  -25.8687  -25.2420 H   0  0  0  0  0  0  0  0  0  0  0  0
  -15.7390  -25.3749  -25.2560 H   0  0  0  0  0  0  0  0  0  0  0  0
  -15.3532  -28.0192  -26.5434 H   0  0  0  0  0  0  0  0  0  0  0  0
  -14.5503  -27.6019  -24.9808 H   0  0  0  0  0  0  0  0  0  0  0  0
  -16.3487  -27.4718  -25.0874 H   0  0  0  0  0  0  0  0  0  0  0  0
  -15.2381  -25.9591  -28.1241 H   0  0  0  0  0  0  0  0  0  0  0  0
  -18.0525  -25.5629  -27.0562 H   0  0  0  0  0  0  0  0  0  0  0  0
  -17.3793  -27.2049  -26.8300 H   0  0  0  0  0  0  0  0  0  0  0  0
  -17.4026  -26.5497  -28.4791 H   0  0  0  0  0  0  0  0  0  0  0  0
  -16.4493  -23.9373  -28.4036 H   0  0  0  0  0  0  0  0  0  0  0  0
  -16.8539  -23.8555  -26.6758 H   0  0  0  0  0  0  0  0  0  0  0  0
  -15.9899  -22.3726  -24.9814 H   0  0  0  0  0  0  0  0  0  0  0  0
  -16.2669  -20.0148  -24.4778 H   0  0  0  0  0  0  0  0  0  0  0  0
  1  2  1  0
  2  3  2  0
  3  4  1  0
  4  5  1  0
  4  6  2  0
  6  7  1  0
  7  8  1  0
  8  9  2  0
  8 10  1  0
 10 11  1  0
 11 12  1  0
 12 13  2  0
 13 14  1  0
 14 15  2  0
 15 16  1  0
 16 17  1  0
 17 18  1  0
 18 19  1  0
 19 20  1  0
 19 21  1  0
 21 22  1  0
 21 23  1  0
 15 24  1  0
 24 25  2  0
 11 26  2  0
 26 27  1  0
 27  2  1  0
 27  7  2  0
 25 12  1  0
 23 16  1  0
  1 28  1  0
  1 29  1  0
  1 30  1  0
  3 31  1  0
  6 32  1  0
 10 33  1  0
 13 34  1  0
 14 35  1  0
 16 36  1  0
 17 37  1  0
 17 38  1  0
 18 39  1  0
 18 40  1  0
 19 41  1  0
 20 42  1  0
 20 43  1  0
 20 44  1  0
 21 45  1  0
 22 46  1  0
 22 47  1  0
 22 48  1  0
 23 49  1  0
 23 50  1  0
 24 51  1  0
 25 52  1  0
M  CHG  1  19   1
M  END
$$$$
