
     RDKit          3D

 40 42  0  0  0  0  0  0  0  0999 V2000
  -15.2137  -25.2557  -28.0382 C   0  0  0  0  0  0  0  0  0  0  0  0
  -15.3557  -23.7881  -27.7524 C   0  0  0  0  0  0  0  0  0  0  0  0
  -14.6108  -23.3722  -26.5038 C   0  0  0  0  0  0  0  0  0  0  0  0
  -15.1851  -24.1616  -25.3353 C   0  0  0  0  0  0  0  0  0  0  0  0
  -13.2623  -23.6617  -26.5770 O   0  0  0  0  0  0  0  0  0  0  0  0
  -14.8248  -21.9173  -26.3165 C   0  0  0  0  0  0  0  0  0  0  0  0
  -15.4197  -21.4701  -25.1676 C   0  0  0  0  0  0  0  0  0  0  0  0
  -15.6340  -20.0959  -24.9648 C   0  0  0  0  0  0  0  0  0  0  0  0
  -15.2421  -19.2098  -25.9268 C   0  0  0  0  0  0  0  0  0  0  0  0
  -15.4494  -17.7840  -25.7413 C   0  0  0  0  0  0  0  0  0  0  0  0
  -15.0559  -16.9034  -26.7076 N   0  0  0  0  0  0  0  0  0  0  0  0
  -15.2199  -15.5893  -26.5904 C   0  0  0  0  0  0  0  0  0  0  0  0
  -14.7941  -14.7719  -27.6116 C   0  0  0  0  0  0  0  0  0  0  0  0
  -14.2165  -15.2550  -28.7288 F   0  0  0  0  0  0  0  0  0  0  0  0
  -14.9671  -13.4197  -27.4812 C   0  0  0  0  0  0  0  0  0  0  0  0
  -15.5531  -12.8458  -26.3624 C   0  0  0  0  0  0  0  0  0  0  0  0
  -15.9684  -13.6889  -25.3585 C   0  0  0  0  0  0  0  0  0  0  0  0
  -15.8112  -15.0485  -25.4552 C   0  0  0  0  0  0  0  0  0  0  0  0
  -16.2154  -15.9187  -24.4689 C   0  0  0  0  0  0  0  0  0  0  0  0
  -16.7603  -15.4573  -23.4163 O   0  0  0  0  0  0  0  0  0  0  0  0
  -16.0173  -17.2296  -24.6571 N   0  0  0  0  0  0  0  0  0  0  0  0
  -14.6440  -19.6473  -27.0841 C   0  0  0  0  0  0  0  0  0  0  0  0
  -14.4305  -21.0188  -27.2864 C   0  0  0  0  0  0  0  0  0  0  0  0
  -15.1564  -25.4966  -29.1186 H   0  0  0  0  0  0  0  0  0  0  0  0
  -14.3471  -25.7219  -27.5125 H   0  0  0  0  0  0  0  0  0  0  0  0
  -16.1291  -25.7763  -27.6363 H   0  0  0  0  0  0  0  0  0  0  0  0
  -16.4092  -23.4678  -27.6463 H   0  0  0  0  0  0  0  0  0  0  0  0
  -14.9453  -23.2469  -28.6419 H   0  0  0  0  0  0  0  0  0  0  0  0
  -14.9722  -25.2371  -25.5641 H   0  0  0  0  0  0  0  0  0  0  0  0
  -14.6928  -23.8902  -24.3908 H   0  0  0  0  0  0  0  0  0  0  0  0
  -16.2727  -24.0133  -25.2796 H   0  0  0  0  0  0  0  0  0  0  0  0
  -12.8988  -23.9350  -25.6958 H   0  0  0  0  0  0  0  0  0  0  0  0
  -15.7483  -22.1247  -24.3759 H   0  0  0  0  0  0  0  0  0  0  0  0
  -16.1065  -19.7948  -24.0432 H   0  0  0  0  0  0  0  0  0  0  0  0
  -14.6496  -12.7239  -28.2570 H   0  0  0  0  0  0  0  0  0  0  0  0
  -15.6848  -11.7695  -26.2709 H   0  0  0  0  0  0  0  0  0  0  0  0
  -16.4323  -13.2872  -24.4634 H   0  0  0  0  0  0  0  0  0  0  0  0
  -16.3442  -17.8497  -23.8739 H   0  0  0  0  0  0  0  0  0  0  0  0
  -14.3436  -18.9253  -27.8292 H   0  0  0  0  0  0  0  0  0  0  0  0
  -13.9621  -21.3772  -28.1901 H   0  0  0  0  0  0  0  0  0  0  0  0
  1  2  1  0
  2  3  1  0
  3  4  1  0
  3  5  1  0
  3  6  1  0
  6  7  2  0
  7  8  1  0
  8  9  2  0
  9 10  1  0
 10 11  2  0
 11 12  1  0
 12 13  2  0
 13 14  1  0
 13 15  1  0
 15 16  2  0
 16 17  1  0
 17 18  2  0
 18 19  1  0
 19 20  2  0
 19 21  1  0
  9 22  1  0
 22 23  2  0
 23  6  1  0
 21 10  1  0
 18 12  1  0
  1 24  1  0
  1 25  1  0
  1 26  1  0
  2 27  1  0
  2 28  1  0
  4 29  1  0
  4 30  1  0
  4 31  1  0
  5 32  1  0
  7 33  1  0
  8 34  1  0
 15 35  1  0
 16 36  1  0
 17 37  1  0
 21 38  1  0
 22 39  1  0
 23 40  1  0
M  END
$$$$
