
     RDKit          3D

 30 32  0  0  0  0  0  0  0  0999 V2000
  -14.7094  -23.3982  -26.5456 C   0  0  0  0  0  0  0  0  0  0  0  0
  -14.9357  -21.9478  -26.3397 C   0  0  0  0  0  0  0  0  0  0  0  0
  -14.4389  -20.9925  -27.2180 C   0  0  0  0  0  0  0  0  0  0  0  0
  -14.6433  -19.6472  -27.0357 C   0  0  0  0  0  0  0  0  0  0  0  0
  -15.3673  -19.2233  -25.9427 C   0  0  0  0  0  0  0  0  0  0  0  0
  -15.5792  -17.7744  -25.7593 C   0  0  0  0  0  0  0  0  0  0  0  0
  -15.0575  -16.9227  -26.6661 N   0  0  0  0  0  0  0  0  0  0  0  0
  -15.2065  -15.5939  -26.5691 C   0  0  0  0  0  0  0  0  0  0  0  0
  -14.6455  -14.7908  -27.5327 C   0  0  0  0  0  0  0  0  0  0  0  0
  -14.8142  -13.4127  -27.4100 C   0  0  0  0  0  0  0  0  0  0  0  0
  -15.5185  -12.8841  -26.3587 C   0  0  0  0  0  0  0  0  0  0  0  0
  -16.0740  -13.6863  -25.4038 C   0  0  0  0  0  0  0  0  0  0  0  0
  -15.9152  -15.0686  -25.5107 C   0  0  0  0  0  0  0  0  0  0  0  0
  -16.4548  -15.9084  -24.5770 C   0  0  0  0  0  0  0  0  0  0  0  0
  -17.1068  -15.4590  -23.5996 O   0  0  0  0  0  0  0  0  0  0  0  0
  -16.2572  -17.2482  -24.7491 N   0  0  0  0  0  0  0  0  0  0  0  0
  -15.8812  -20.1253  -25.0429 C   0  0  0  0  0  0  0  0  0  0  0  0
  -15.6436  -21.4833  -25.2760 C   0  0  0  0  0  0  0  0  0  0  0  0
  -15.6093  -23.7850  -27.0761 H   0  0  0  0  0  0  0  0  0  0  0  0
  -13.7755  -23.5741  -27.1288 H   0  0  0  0  0  0  0  0  0  0  0  0
  -14.6195  -23.9093  -25.5732 H   0  0  0  0  0  0  0  0  0  0  0  0
  -13.8702  -21.3738  -28.0717 H   0  0  0  0  0  0  0  0  0  0  0  0
  -14.2430  -18.9425  -27.7368 H   0  0  0  0  0  0  0  0  0  0  0  0
  -14.0885  -15.1968  -28.3654 H   0  0  0  0  0  0  0  0  0  0  0  0
  -14.3815  -12.7615  -28.1564 H   0  0  0  0  0  0  0  0  0  0  0  0
  -15.6406  -11.8173  -26.2769 H   0  0  0  0  0  0  0  0  0  0  0  0
  -16.6359  -13.3084  -24.5607 H   0  0  0  0  0  0  0  0  0  0  0  0
  -16.6818  -17.8516  -24.0202 H   0  0  0  0  0  0  0  0  0  0  0  0
  -16.4499  -19.8189  -24.1816 H   0  0  0  0  0  0  0  0  0  0  0  0
  -16.0697  -22.1760  -24.5356 H   0  0  0  0  0  0  0  0  0  0  0  0
  1  2  1  0
  2  3  2  0
  3  4  1  0
  4  5  2  0
  5  6  1  0
  6  7  2  0
  7  8  1  0
  8  9  2  0
  9 10  1  0
 10 11  2  0
 11 12  1  0
 12 13  2  0
 13 14  1  0
 14 15  2  0
 14 16  1  0
  5 17  1  0
 17 18  2  0
 18  2  1  0
 16  6  1  0
 13  8  1  0
  1 19  1  0
  1 20  1  0
  1 21  1  0
  3 22  1  0
  4 23  1  0
  9 24  1  0
 10 25  1  0
 11 26  1  0
 12 27  1  0
 16 28  1  0
 17 29  1  0
 18 30  1  0
M  END
$$$$
