
     RDKit          3D

 43 45  0  0  0  0  0  0  0  0999 V2000
  -15.2170  -23.4972  -28.6759 C   0  0  0  0  0  0  0  0  0  0  0  0
  -14.2154  -23.6838  -27.7658 O   0  0  0  0  0  0  0  0  0  0  0  0
  -14.6310  -23.3742  -26.4872 C   0  0  0  0  0  0  0  0  0  0  0  0
  -15.8608  -24.2090  -26.1683 C   0  0  0  0  0  0  0  0  0  0  0  0
  -13.5598  -23.7595  -25.4629 C   0  0  0  0  0  0  0  0  0  0  0  0
  -14.8341  -21.9317  -26.3313 C   0  0  0  0  0  0  0  0  0  0  0  0
  -14.3297  -21.0207  -27.2237 C   0  0  0  0  0  0  0  0  0  0  0  0
  -14.5362  -19.6524  -27.0342 C   0  0  0  0  0  0  0  0  0  0  0  0
  -15.2570  -19.1734  -25.9359 C   0  0  0  0  0  0  0  0  0  0  0  0
  -15.4644  -17.7343  -25.7524 C   0  0  0  0  0  0  0  0  0  0  0  0
  -14.9582  -16.8861  -26.6877 N   0  0  0  0  0  0  0  0  0  0  0  0
  -15.1126  -15.5523  -26.5928 C   0  0  0  0  0  0  0  0  0  0  0  0
  -14.6100  -14.6641  -27.5288 C   0  0  0  0  0  0  0  0  0  0  0  0
  -14.7793  -13.2996  -27.4143 C   0  0  0  0  0  0  0  0  0  0  0  0
  -15.4771  -12.8118  -26.3229 C   0  0  0  0  0  0  0  0  0  0  0  0
  -15.7038  -11.3590  -26.1297 C   0  0  0  0  0  0  0  0  0  0  0  0
  -15.9724  -13.7046  -25.3981 C   0  0  0  0  0  0  0  0  0  0  0  0
  -15.8081  -15.0884  -25.5011 C   0  0  0  0  0  0  0  0  0  0  0  0
  -16.3294  -15.9232  -24.5417 C   0  0  0  0  0  0  0  0  0  0  0  0
  -16.9616  -15.5155  -23.5488 O   0  0  0  0  0  0  0  0  0  0  0  0
  -16.1383  -17.2689  -24.6961 N   0  0  0  0  0  0  0  0  0  0  0  0
  -15.7270  -20.1237  -25.0912 C   0  0  0  0  0  0  0  0  0  0  0  0
  -15.5527  -21.4844  -25.2318 C   0  0  0  0  0  0  0  0  0  0  0  0
  -15.6514  -22.5014  -28.7672 H   0  0  0  0  0  0  0  0  0  0  0  0
  -16.0429  -24.2424  -28.5824 H   0  0  0  0  0  0  0  0  0  0  0  0
  -14.7834  -23.7194  -29.6973 H   0  0  0  0  0  0  0  0  0  0  0  0
  -16.7946  -23.7199  -26.4782 H   0  0  0  0  0  0  0  0  0  0  0  0
  -15.7415  -25.2210  -26.6388 H   0  0  0  0  0  0  0  0  0  0  0  0
  -15.9253  -24.3676  -25.0775 H   0  0  0  0  0  0  0  0  0  0  0  0
  -12.6225  -24.1143  -25.9753 H   0  0  0  0  0  0  0  0  0  0  0  0
  -13.9100  -24.6188  -24.8647 H   0  0  0  0  0  0  0  0  0  0  0  0
  -13.3456  -22.9417  -24.7605 H   0  0  0  0  0  0  0  0  0  0  0  0
  -13.7451  -21.3222  -28.1065 H   0  0  0  0  0  0  0  0  0  0  0  0
  -14.1301  -18.9792  -27.7479 H   0  0  0  0  0  0  0  0  0  0  0  0
  -14.0667  -15.0352  -28.3836 H   0  0  0  0  0  0  0  0  0  0  0  0
  -14.3689  -12.6076  -28.1665 H   0  0  0  0  0  0  0  0  0  0  0  0
  -15.0253  -10.9485  -25.3505 H   0  0  0  0  0  0  0  0  0  0  0  0
  -15.6589  -10.8199  -27.0847 H   0  0  0  0  0  0  0  0  0  0  0  0
  -16.7432  -11.2020  -25.7095 H   0  0  0  0  0  0  0  0  0  0  0  0
  -16.5299  -13.3690  -24.5199 H   0  0  0  0  0  0  0  0  0  0  0  0
  -16.5175  -17.9365  -23.9890 H   0  0  0  0  0  0  0  0  0  0  0  0
  -16.3034  -19.8442  -24.1997 H   0  0  0  0  0  0  0  0  0  0  0  0
  -15.9649  -22.1894  -24.5007 H   0  0  0  0  0  0  0  0  0  0  0  0
  1  2  1  0
  2  3  1  0
  3  4  1  0
  3  5  1  0
  3  6  1  0
  6  7  2  0
  7  8  1  0
  8  9  2  0
  9 10  1  0
 10 11  2  0
 11 12  1  0
 12 13  2  0
 13 14  1  0
 14 15  2  0
 15 16  1  0
 15 17  1  0
 17 18  2  0
 18 19  1  0
 19 20  2  0
 19 21  1  0
  9 22  1  0
 22 23  2  0
 23  6  1  0
 21 10  1  0
 18 12  1  0
  1 24  1  0
  1 25  1  0
  1 26  1  0
  4 27  1  0
  4 28  1  0
  4 29  1  0
  5 30  1  0
  5 31  1  0
  5 32  1  0
  7 33  1  0
  8 34  1  0
 13 35  1  0
 14 36  1  0
 16 37  1  0
 16 38  1  0
 16 39  1  0
 17 40  1  0
 21 41  1  0
 22 42  1  0
 23 43  1  0
M  END
$$$$
