
     RDKit          3D

 40 42  0  0  0  0  0  0  0  0999 V2000
   24.2645    1.1797  -13.4784 C   0  0  0  0  0  0  0  0  0  0  0  0
   25.3109    0.3275  -12.8428 C   0  0  1  0  0  0  0  0  0  0  0  0
   26.6015    1.0193  -12.5698 C   0  0  0  0  0  0  0  0  0  0  0  0
   27.2479   -0.0068  -11.6171 C   0  0  1  0  0  0  0  0  0  0  0  0
   28.3026    0.5740  -10.9884 O   0  0  0  0  0  0  0  0  0  0  0  0
   26.0896   -0.3810  -10.7596 C   0  0  0  0  0  0  0  0  0  0  0  0
   26.0409   -0.8671   -9.4777 C   0  0  0  0  0  0  0  0  0  0  0  0
   27.3897   -1.0864   -8.4115 S   0  0  0  0  0  6  0  0  0  0  0  0
   28.4861   -1.8875   -9.1063 O   0  0  0  0  0  0  0  0  0  0  0  0
   26.9811   -1.9207   -7.2277 O   0  0  0  0  0  0  0  0  0  0  0  0
   28.1237    0.3822   -7.8064 C   0  0  0  0  0  0  0  0  0  0  0  0
   27.1982    1.1598   -7.0963 F   0  0  0  0  0  0  0  0  0  0  0  0
   24.7663   -1.1773   -8.9616 C   0  0  0  0  0  0  0  0  0  0  0  0
   23.6303   -0.9999   -9.7051 C   0  0  0  0  0  0  0  0  0  0  0  0
   23.6959   -0.5104  -10.9879 C   0  0  0  0  0  0  0  0  0  0  0  0
   22.5612   -0.3163  -11.7731 O   0  0  0  0  0  0  0  0  0  0  0  0
   21.3109   -0.6243  -11.2545 C   0  0  0  0  0  0  0  0  0  0  0  0
   20.7871   -1.9064  -11.4206 C   0  0  0  0  0  0  0  0  0  0  0  0
   19.5508   -2.2601  -10.9242 C   0  0  0  0  0  0  0  0  0  0  0  0
   19.0388   -3.5108  -11.0858 F   0  0  0  0  0  0  0  0  0  0  0  0
   18.7850   -1.3527  -10.2421 C   0  0  0  0  0  0  0  0  0  0  0  0
   19.2763   -0.0765  -10.0618 C   0  0  0  0  0  0  0  0  0  0  0  0
   18.3100    1.1018   -9.1900 Cl  0  0  0  0  0  0  0  0  0  0  0  0
   20.5319    0.2748  -10.5686 C   0  0  0  0  0  0  0  0  0  0  0  0
   24.9222   -0.2013  -11.5154 C   0  0  0  0  0  0  0  0  0  0  0  0
   23.5402    0.4802  -13.9904 H   0  0  0  0  0  0  0  0  0  0  0  0
   24.7343    1.7521  -14.3029 H   0  0  0  0  0  0  0  0  0  0  0  0
   23.7417    1.8211  -12.7415 H   0  0  0  0  0  0  0  0  0  0  0  0
   25.5104   -0.5341  -13.5276 H   0  0  0  0  0  0  0  0  0  0  0  0
   26.4307    1.9203  -11.9255 H   0  0  0  0  0  0  0  0  0  0  0  0
   27.2299    1.2119  -13.4378 H   0  0  0  0  0  0  0  0  0  0  0  0
   27.5556   -0.9086  -12.2063 H   0  0  0  0  0  0  0  0  0  0  0  0
   28.4084    1.5163  -11.2707 H   0  0  0  0  0  0  0  0  0  0  0  0
   28.8555    0.0350   -6.9945 H   0  0  0  0  0  0  0  0  0  0  0  0
   28.7433    0.9539   -8.4882 H   0  0  0  0  0  0  0  0  0  0  0  0
   24.6577   -1.5663   -7.9562 H   0  0  0  0  0  0  0  0  0  0  0  0
   22.6349   -1.2342   -9.3231 H   0  0  0  0  0  0  0  0  0  0  0  0
   21.3907   -2.6217  -11.9582 H   0  0  0  0  0  0  0  0  0  0  0  0
   17.8106   -1.5870   -9.8360 H   0  0  0  0  0  0  0  0  0  0  0  0
   20.9070    1.2819  -10.4201 H   0  0  0  0  0  0  0  0  0  0  0  0
  1  2  1  0
  2  3  1  0
  3  4  1  0
  4  5  1  0
  4  6  1  0
  6  7  2  0
  7  8  1  0
  8  9  2  0
  8 10  2  0
  8 11  1  0
 11 12  1  0
  7 13  1  0
 13 14  2  0
 14 15  1  0
 15 16  1  0
 16 17  1  0
 17 18  2  0
 18 19  1  0
 19 20  1  0
 19 21  2  0
 21 22  1  0
 22 23  1  0
 22 24  2  0
 15 25  2  0
 25  2  1  0
 25  6  1  0
 24 17  1  0
  1 26  1  0
  1 27  1  0
  1 28  1  0
  2 29  1  6
  3 30  1  0
  3 31  1  0
  4 32  1  6
  5 33  1  0
 11 34  1  0
 11 35  1  0
 13 36  1  0
 14 37  1  0
 18 38  1  0
 21 39  1  0
 24 40  1  0
M  END
$$$$
