
     RDKit          3D

 39 41  0  0  0  0  0  0  0  0999 V2000
   18.8829   -3.5392  -11.0447 C   0  0  0  0  0  0  0  0  0  0  0  0
   19.6581   -2.3151  -10.9389 N   0  0  0  0  0  0  0  0  0  0  0  0
   20.8642   -2.1805  -11.5553 C   0  0  0  0  0  0  0  0  0  0  0  0
   21.2936   -0.9073  -11.2342 C   0  0  0  0  0  0  0  0  0  0  0  0
   22.4899   -0.3821  -11.6727 O   0  0  0  0  0  0  0  0  0  0  0  0
   23.6791   -0.5092  -10.9705 C   0  0  0  0  0  0  0  0  0  0  0  0
   23.6406   -1.1984   -9.7779 C   0  0  0  0  0  0  0  0  0  0  0  0
   24.8382   -1.3053   -9.1086 C   0  0  0  0  0  0  0  0  0  0  0  0
   26.0295   -0.7495   -9.6019 C   0  0  0  0  0  0  0  0  0  0  0  0
   27.4404   -0.9976   -8.6632 S   0  0  0  0  0  6  0  0  0  0  0  0
   27.1042   -1.8201   -7.4434 O   0  0  0  0  0  0  0  0  0  0  0  0
   28.5290   -1.7292   -9.3993 O   0  0  0  0  0  0  0  0  0  0  0  0
   28.0940    0.5475   -8.0939 C   0  0  0  0  0  0  0  0  0  0  0  0
   28.6007    1.3430   -9.0768 F   0  0  0  0  0  0  0  0  0  0  0  0
   29.1588    0.2024   -7.1718 O   0  0  0  0  0  0  0  0  0  0  0  0
   29.0684    0.5979   -5.8900 C   0  0  0  0  0  0  0  0  0  0  0  0
   29.0020    0.9532   -4.7950 N   0  0  0  0  0  0  0  0  0  0  0  0
   26.0125   -0.0652  -10.8042 C   0  0  0  0  0  0  0  0  0  0  0  0
   24.8148    0.0433  -11.4811 C   0  0  0  0  0  0  0  0  0  0  0  0
   25.0312    0.7805  -12.7884 C   0  0  0  0  0  0  0  0  0  0  0  0
   26.4954    0.4128  -13.0275 C   0  0  0  0  0  0  0  0  0  0  0  0
   26.5980   -0.9297  -13.2843 F   0  0  0  0  0  0  0  0  0  0  0  0
   27.1048    1.1999  -13.9433 F   0  0  0  0  0  0  0  0  0  0  0  0
   27.0378    0.6455  -11.5916 C   0  0  1  0  0  0  0  0  0  0  0  0
   26.9964    2.0460  -11.3945 O   0  0  0  0  0  0  0  0  0  0  0  0
   20.3283   -0.3047  -10.4273 C   0  0  0  0  0  0  0  0  0  0  0  0
   19.3625   -1.2197  -10.2899 N   0  0  0  0  0  0  0  0  0  0  0  0
   17.9985   -3.4732  -10.3823 H   0  0  0  0  0  0  0  0  0  0  0  0
   18.5099   -3.6615  -12.0870 H   0  0  0  0  0  0  0  0  0  0  0  0
   19.4729   -4.4141  -10.7471 H   0  0  0  0  0  0  0  0  0  0  0  0
   21.3880   -2.8890  -12.1615 H   0  0  0  0  0  0  0  0  0  0  0  0
   22.7370   -1.6358   -9.3746 H   0  0  0  0  0  0  0  0  0  0  0  0
   24.8379   -1.8450   -8.1637 H   0  0  0  0  0  0  0  0  0  0  0  0
   27.3308    1.1266   -7.5221 H   0  0  0  0  0  0  0  0  0  0  0  0
   24.8481    1.8442  -12.7139 H   0  0  0  0  0  0  0  0  0  0  0  0
   24.4542    0.3250  -13.6124 H   0  0  0  0  0  0  0  0  0  0  0  0
   28.0373    0.2744  -11.5739 H   0  0  0  0  0  0  0  0  0  0  0  0
   27.2424    2.4412  -12.2824 H   0  0  0  0  0  0  0  0  0  0  0  0
   20.3804    0.6944  -10.0157 H   0  0  0  0  0  0  0  0  0  0  0  0
  1  2  1  0
  2  3  1  0
  3  4  2  0
  4  5  1  0
  5  6  1  0
  6  7  2  0
  7  8  1  0
  8  9  2  0
  9 10  1  0
 10 11  2  0
 10 12  2  0
 10 13  1  0
 13 14  1  0
 13 15  1  0
 15 16  1  0
 16 17  3  0
  9 18  1  0
 18 19  2  0
 19 20  1  0
 20 21  1  0
 21 22  1  0
 21 23  1  0
 21 24  1  0
 24 25  1  0
  4 26  1  0
 26 27  2  0
 27  2  1  0
 19  6  1  0
 24 18  1  0
  1 28  1  0
  1 29  1  0
  1 30  1  0
  3 31  1  0
  7 32  1  0
  8 33  1  0
 13 34  1  0
 20 35  1  0
 20 36  1  0
 24 37  1  6
 25 38  1  0
 26 39  1  0
M  END
$$$$
