
     RDKit          3D

 39 41  0  0  0  0  0  0  0  0999 V2000
   27.0831   31.9701   62.0718 N   0  0  0  0  0  0  0  0  0  0  0  0
   26.1627   31.9239   61.3728 C   0  0  0  0  0  0  0  0  0  0  0  0
   24.9913   31.8494   60.4995 C   0  0  0  0  0  0  0  0  0  0  0  0
   24.0193   31.1817   60.8728 O   0  0  0  0  0  0  0  0  0  0  0  0
   25.0384   32.5382   59.2922 N   0  0  0  0  0  0  0  0  0  0  0  0
   23.9822   32.5658   58.3493 C   0  0  0  0  0  0  0  0  0  0  0  0
   24.2341   32.9772   57.0310 C   0  0  0  0  0  0  0  0  0  0  0  0
   23.2472   33.0383   56.0914 C   0  0  0  0  0  0  0  0  0  0  0  0
   21.9416   32.7004   56.3754 C   0  0  0  0  0  0  0  0  0  0  0  0
   21.6677   32.2941   57.6598 C   0  0  0  0  0  0  0  0  0  0  0  0
   20.2877   31.9264   58.0215 C   0  0  0  0  0  0  0  0  0  0  0  0
   19.9850   30.5361   57.7021 N   0  0  0  0  0  0  0  0  0  0  0  0
   19.5103   30.2618   56.4916 N   0  0  0  0  0  0  0  0  0  0  0  0
   19.2219   28.9918   56.1519 C   0  0  0  0  0  0  0  0  0  0  0  0
   18.6986   28.6552   54.8293 C   0  0  0  0  0  0  0  0  0  0  0  0
   18.5051   29.7003   53.9207 C   0  0  0  0  0  0  0  0  0  0  0  0
   18.0170   29.4597   52.6608 C   0  0  0  0  0  0  0  0  0  0  0  0
   17.7123   28.1821   52.2791 C   0  0  0  0  0  0  0  0  0  0  0  0
   17.8861   27.1247   53.1377 C   0  0  0  0  0  0  0  0  0  0  0  0
   17.5896   25.8570   52.7749 F   0  0  0  0  0  0  0  0  0  0  0  0
   18.3838   27.3978   54.4126 C   0  0  0  0  0  0  0  0  0  0  0  0
   19.4301   28.0012   57.0815 C   0  0  0  0  0  0  0  0  0  0  0  0
   19.9295   28.2770   58.3601 C   0  0  0  0  0  0  0  0  0  0  0  0
   20.2000   29.6092   58.6282 C   0  0  0  0  0  0  0  0  0  0  0  0
   20.6514   29.8775   59.7791 O   0  0  0  0  0  0  0  0  0  0  0  0
   22.6785   32.2335   58.6170 C   0  0  0  0  0  0  0  0  0  0  0  0
   25.8984   33.1023   59.0066 H   0  0  0  0  0  0  0  0  0  0  0  0
   25.2601   33.2455   56.7930 H   0  0  0  0  0  0  0  0  0  0  0  0
   23.4447   33.3594   55.0632 H   0  0  0  0  0  0  0  0  0  0  0  0
   21.1691   32.7537   55.6190 H   0  0  0  0  0  0  0  0  0  0  0  0
   19.5452   32.5676   57.5026 H   0  0  0  0  0  0  0  0  0  0  0  0
   20.1356   32.0448   59.1176 H   0  0  0  0  0  0  0  0  0  0  0  0
   18.7531   30.7250   54.2369 H   0  0  0  0  0  0  0  0  0  0  0  0
   17.8596   30.2623   51.9387 H   0  0  0  0  0  0  0  0  0  0  0  0
   17.3241   27.9480   51.2924 H   0  0  0  0  0  0  0  0  0  0  0  0
   18.5221   26.5584   55.0952 H   0  0  0  0  0  0  0  0  0  0  0  0
   19.2282   26.9428   56.9044 H   0  0  0  0  0  0  0  0  0  0  0  0
   20.0875   27.4946   59.0764 H   0  0  0  0  0  0  0  0  0  0  0  0
   22.4320   31.9255   59.6290 H   0  0  0  0  0  0  0  0  0  0  0  0
  1  2  3  0
  2  3  1  0
  3  4  2  0
  3  5  1  0
  5  6  1  0
  6  7  2  0
  7  8  1  0
  8  9  2  0
  9 10  1  0
 10 11  1  0
 11 12  1  0
 12 13  1  0
 13 14  2  0
 14 15  1  0
 15 16  2  0
 16 17  1  0
 17 18  2  0
 18 19  1  0
 19 20  1  0
 19 21  2  0
 14 22  1  0
 22 23  2  0
 23 24  1  0
 24 25  2  0
 10 26  2  0
 26  6  1  0
 24 12  1  0
 21 15  1  0
  5 27  1  0
  7 28  1  0
  8 29  1  0
  9 30  1  0
 11 31  1  0
 11 32  1  0
 16 33  1  0
 17 34  1  0
 18 35  1  0
 21 36  1  0
 22 37  1  0
 23 38  1  0
 26 39  1  0
M  END
$$$$
