
     RDKit          3D

 50 52  0  0  0  0  0  0  0  0999 V2000
   24.5147   34.4871   50.7850 C   0  0  0  0  0  0  0  0  0  0  0  0
   24.1156   34.0807   52.1638 C   0  0  0  0  0  0  0  0  0  0  0  0
   22.8111   33.7453   52.4448 C   0  0  0  0  0  0  0  0  0  0  0  0
   22.4882   33.3717   53.7510 C   0  0  0  0  0  0  0  0  0  0  0  0
   23.4189   33.3284   54.7528 C   0  0  0  0  0  0  0  0  0  0  0  0
   23.0695   32.9384   56.1052 C   0  0  0  0  0  0  0  0  0  0  0  0
   24.1221   32.9405   57.0208 C   0  0  0  0  0  0  0  0  0  0  0  0
   23.8621   32.5843   58.3079 C   0  0  0  0  0  0  0  0  0  0  0  0
   22.5808   32.2207   58.7293 C   0  0  0  0  0  0  0  0  0  0  0  0
   21.5280   32.2126   57.8391 C   0  0  0  0  0  0  0  0  0  0  0  0
   20.1835   31.8315   58.2795 C   0  0  0  0  0  0  0  0  0  0  0  0
   19.9530   30.3822   58.1364 N   0  0  0  0  0  0  0  0  0  0  0  0
   20.7884   29.5300   58.8379 N   0  0  0  0  0  0  0  0  0  0  0  0
   20.7172   28.2549   58.8184 C   0  0  0  0  0  0  0  0  0  0  0  0
   21.6195   27.3478   59.5757 C   0  0  0  0  0  0  0  0  0  0  0  0
   22.6063   28.0850   60.3521 C   0  0  0  0  0  0  0  0  0  0  0  0
   22.7338   28.0244   61.6542 C   0  0  0  0  0  0  0  0  0  0  0  0
   21.9258   27.2164   62.5939 C   0  0  0  0  0  0  0  0  0  0  0  0
   22.7649   26.3306   63.2811 F   0  0  0  0  0  0  0  0  0  0  0  0
   19.6672   27.6836   57.9860 C   0  0  0  0  0  0  0  0  0  0  0  0
   18.8389   28.4248   57.2935 C   0  0  0  0  0  0  0  0  0  0  0  0
   18.9072   29.8820   57.3052 C   0  0  0  0  0  0  0  0  0  0  0  0
   19.0063   30.4098   55.8807 C   0  0  0  0  0  0  0  0  0  0  0  0
   21.8122   32.5816   56.5189 C   0  0  0  0  0  0  0  0  0  0  0  0
   24.6779   33.6677   54.4151 N   0  0  0  0  0  0  0  0  0  0  0  0
   25.0399   34.0312   53.1867 C   0  0  0  0  0  0  0  0  0  0  0  0
   25.5689   34.8821   50.8352 H   0  0  0  0  0  0  0  0  0  0  0  0
   24.5591   33.6272   50.0900 H   0  0  0  0  0  0  0  0  0  0  0  0
   23.8263   35.2747   50.4272 H   0  0  0  0  0  0  0  0  0  0  0  0
   22.0460   33.7668   51.6813 H   0  0  0  0  0  0  0  0  0  0  0  0
   21.4540   33.1089   53.9602 H   0  0  0  0  0  0  0  0  0  0  0  0
   25.1282   33.2139   56.7416 H   0  0  0  0  0  0  0  0  0  0  0  0
   24.6903   32.5882   59.0186 H   0  0  0  0  0  0  0  0  0  0  0  0
   22.4789   31.9543   59.7729 H   0  0  0  0  0  0  0  0  0  0  0  0
   20.1075   32.0317   59.3683 H   0  0  0  0  0  0  0  0  0  0  0  0
   19.4182   32.4129   57.7668 H   0  0  0  0  0  0  0  0  0  0  0  0
   22.1353   26.7262   58.7884 H   0  0  0  0  0  0  0  0  0  0  0  0
   21.0027   26.6936   60.2061 H   0  0  0  0  0  0  0  0  0  0  0  0
   23.2953   28.7450   59.7747 H   0  0  0  0  0  0  0  0  0  0  0  0
   23.5454   28.6571   62.0879 H   0  0  0  0  0  0  0  0  0  0  0  0
   21.5004   27.8815   63.3866 H   0  0  0  0  0  0  0  0  0  0  0  0
   21.1529   26.5982   62.1358 H   0  0  0  0  0  0  0  0  0  0  0  0
   19.5819   26.5875   57.9498 H   0  0  0  0  0  0  0  0  0  0  0  0
   18.0654   27.9277   56.6826 H   0  0  0  0  0  0  0  0  0  0  0  0
   17.9122   30.2264   57.7410 H   0  0  0  0  0  0  0  0  0  0  0  0
   19.9954   30.1911   55.4805 H   0  0  0  0  0  0  0  0  0  0  0  0
   18.7128   31.4655   55.8747 H   0  0  0  0  0  0  0  0  0  0  0  0
   18.2477   29.8540   55.2909 H   0  0  0  0  0  0  0  0  0  0  0  0
   21.0065   32.5832   55.8043 H   0  0  0  0  0  0  0  0  0  0  0  0
   26.0690   34.3026   52.9357 H   0  0  0  0  0  0  0  0  0  0  0  0
  1  2  1  0
  2  3  2  0
  3  4  1  0
  4  5  2  0
  5  6  1  0
  6  7  2  0
  7  8  1  0
  8  9  2  0
  9 10  1  0
 10 11  1  0
 11 12  1  0
 12 13  1  0
 13 14  2  0
 14 15  1  0
 15 16  1  0
 16 17  2  3
 17 18  1  0
 18 19  1  0
 14 20  1  0
 20 21  2  0
 21 22  1  0
 22 23  1  0
 10 24  2  0
  5 25  1  0
 25 26  2  0
 26  2  1  0
 24  6  1  0
 22 12  1  0
  1 27  1  0
  1 28  1  0
  1 29  1  0
  3 30  1  0
  4 31  1  0
  7 32  1  0
  8 33  1  0
  9 34  1  0
 11 35  1  0
 11 36  1  0
 15 37  1  0
 15 38  1  0
 16 39  1  0
 17 40  1  0
 18 41  1  0
 18 42  1  0
 20 43  1  0
 21 44  1  0
 22 45  1  0
 23 46  1  0
 23 47  1  0
 23 48  1  0
 24 49  1  0
 26 50  1  0
M  END
$$$$
