lig_04
     RDKit          3D

 45 48  0  0  0  0  0  0  0  0999 V2000
  -40.0554  -44.9369   16.8653 C   0  0  0  0  0  0  0  0  0  0  0  0
  -38.6879  -44.9360   16.5904 C   0  0  0  0  0  0  0  0  0  0  0  0
  -40.5143  -45.3373   18.1202 C   0  0  0  0  0  0  0  0  0  0  0  0
  -41.8835  -44.2396   20.7233 C   0  0  0  0  0  0  0  0  0  0  0  0
  -38.2382  -45.7361   18.8253 C   0  0  0  0  0  0  0  0  0  0  0  0
  -35.5043  -46.2378   17.9050 C   0  0  0  0  0  0  0  0  0  0  0  0
  -42.1548  -43.4338   21.8456 C   0  0  0  0  0  0  0  0  0  0  0  0
  -35.8128  -44.4326   16.3875 C   0  0  0  0  0  0  0  0  0  0  0  0
  -33.6967  -45.2709   16.6992 C   0  0  0  0  0  0  0  0  0  0  0  0
  -37.7793  -45.3356   17.5704 C   0  0  0  0  0  0  0  0  0  0  0  0
  -36.3607  -45.3345   17.2854 C   0  0  0  0  0  0  0  0  0  0  0  0
  -39.6057  -45.7369   19.1002 C   0  0  0  0  0  0  0  0  0  0  0  0
  -34.1453  -46.2120   17.6119 C   0  0  0  0  0  0  0  0  0  0  0  0
  -40.8581  -45.0688   21.1270 C   0  0  0  0  0  0  0  0  0  0  0  0
  -38.6541  -46.1701   22.5163 C   0  0  0  0  0  0  0  0  0  0  0  0
  -39.6206  -45.3486   23.2769 C   0  0  0  0  0  0  0  0  0  0  0  0
  -40.0989  -46.1665   20.4463 C   0  0  1  0  0  0  0  0  0  0  0  0
  -40.9476  -47.4293   20.3138 C   0  0  0  0  0  0  0  0  0  0  0  0
  -31.9070  -46.9824   17.8402 C   0  0  0  0  0  0  0  0  0  0  0  0
  -34.4982  -44.3773   16.0773 N   0  0  0  0  0  0  0  0  0  0  0  0
  -41.3734  -43.7244   22.8891 N   0  0  0  0  0  0  0  0  0  0  0  0
  -40.5995  -44.7181   22.4193 N   0  0  0  0  0  0  0  0  0  0  0  0
  -38.8949  -46.5220   21.2540 N   0  0  0  0  0  0  0  0  0  0  0  0
  -37.5592  -46.5307   23.1735 N   0  0  0  0  0  4  0  0  0  0  0  0
  -33.2865  -47.0805   18.2005 O   0  0  0  0  0  0  0  0  0  0  0  0
  -40.7628  -44.6260   16.1019 H   0  0  0  0  0  0  0  0  0  0  0  0
  -38.3457  -44.6209   15.6073 H   0  0  0  0  0  0  0  0  0  0  0  0
  -41.5816  -45.3348   18.3259 H   0  0  0  0  0  0  0  0  0  0  0  0
  -42.3653  -44.2230   19.7566 H   0  0  0  0  0  0  0  0  0  0  0  0
  -37.5348  -46.0493   19.5941 H   0  0  0  0  0  0  0  0  0  0  0  0
  -35.8873  -46.9646   18.6179 H   0  0  0  0  0  0  0  0  0  0  0  0
  -42.8913  -42.6498   21.9472 H   0  0  0  0  0  0  0  0  0  0  0  0
  -36.4274  -43.7013   15.8702 H   0  0  0  0  0  0  0  0  0  0  0  0
  -32.6463  -45.2054   16.4332 H   0  0  0  0  0  0  0  0  0  0  0  0
  -40.1715  -45.9692   23.9916 H   0  0  0  0  0  0  0  0  0  0  0  0
  -39.1024  -44.5489   23.8183 H   0  0  0  0  0  0  0  0  0  0  0  0
  -41.3046  -47.7389   21.2947 H   0  0  0  0  0  0  0  0  0  0  0  0
  -40.3510  -48.2313   19.8820 H   0  0  0  0  0  0  0  0  0  0  0  0
  -41.8025  -47.2336   19.6685 H   0  0  0  0  0  0  0  0  0  0  0  0
  -31.3329  -47.7359   18.3850 H   0  0  0  0  0  0  0  0  0  0  0  0
  -31.5369  -45.9826   18.0808 H   0  0  0  0  0  0  0  0  0  0  0  0
  -31.8068  -47.1573   16.7664 H   0  0  0  0  0  0  0  0  0  0  0  0
  -38.1812  -47.0979   20.8139 H   0  0  0  0  0  0  0  0  0  0  0  0
  -37.4206  -46.2456   24.1379 H   0  0  0  0  0  0  0  0  0  0  0  0
  -36.8486  -47.0954   22.7189 H   0  0  0  0  0  0  0  0  0  0  0  0
  1  2  2  0
  1  3  1  0
  2 10  1  0
  3 12  2  0
  4  7  1  0
  4 14  2  0
  5 10  2  0
  5 12  1  0
  6 11  2  0
  6 13  1  0
  7 21  2  0
  8 11  1  0
  8 20  2  0
  9 13  2  0
  9 20  1  0
 10 11  1  0
 12 17  1  0
 13 25  1  0
 14 17  1  0
 14 22  1  0
 15 16  1  0
 15 23  1  0
 15 24  2  0
 16 22  1  0
 17 18  1  6
 17 23  1  0
 19 25  1  0
 21 22  1  0
  1 26  1  0
  2 27  1  0
  3 28  1  0
  4 29  1  0
  5 30  1  0
  6 31  1  0
  7 32  1  0
  8 33  1  0
  9 34  1  0
 16 35  1  0
 16 36  1  0
 18 37  1  0
 18 38  1  0
 18 39  1  0
 19 40  1  0
 19 41  1  0
 19 42  1  0
 23 43  1  0
 24 44  1  0
 24 45  1  0
M  CHG  1  24   1
M  END
