
     RDKit          3D

 43 46  0  0  0  0  0  0  0  0999 V2000
   17.8635   31.6455   51.1030 N   0  0  0  0  0  0  0  0  0  0  0  0
   17.9863   30.6992   51.8186 C   0  0  0  0  0  0  0  0  0  0  0  0
   18.1252   29.5859   52.6901 C   0  0  0  0  0  0  0  0  0  0  0  0
   17.7964   28.2907   52.2644 C   0  0  0  0  0  0  0  0  0  0  0  0
   17.9290   27.2193   53.1033 C   0  0  0  0  0  0  0  0  0  0  0  0
   18.3915   27.4125   54.3843 C   0  0  0  0  0  0  0  0  0  0  0  0
   18.7312   28.6610   54.8619 C   0  0  0  0  0  0  0  0  0  0  0  0
   19.2167   28.8909   56.2102 C   0  0  0  0  0  0  0  0  0  0  0  0
   19.3676   27.9028   57.1506 C   0  0  0  0  0  0  0  0  0  0  0  0
   19.8339   28.2597   58.3976 C   0  0  0  0  0  0  0  0  0  0  0  0
   20.1350   29.5934   58.6668 C   0  0  0  0  0  0  0  0  0  0  0  0
   20.5532   29.8527   59.8156 O   0  0  0  0  0  0  0  0  0  0  0  0
   19.9774   30.5394   57.7255 N   0  0  0  0  0  0  0  0  0  0  0  0
   20.2713   31.9130   57.9592 C   0  0  0  0  0  0  0  0  0  0  0  0
   21.6676   32.2806   57.6554 C   0  0  0  0  0  0  0  0  0  0  0  0
   22.6766   32.2261   58.6151 C   0  0  0  0  0  0  0  0  0  0  0  0
   23.9349   32.5857   58.2283 C   0  0  0  0  0  0  0  0  0  0  0  0
   24.2364   32.9927   56.9461 C   0  0  0  0  0  0  0  0  0  0  0  0
   23.2361   33.0501   55.9819 C   0  0  0  0  0  0  0  0  0  0  0  0
   23.5027   33.4714   54.6142 C   0  0  0  0  0  0  0  0  0  0  0  0
   24.7222   33.8224   54.1915 N   0  0  0  0  0  0  0  0  0  0  0  0
   24.9897   34.2169   52.9395 C   0  0  0  0  0  0  0  0  0  0  0  0
   23.9528   34.2647   52.0361 C   0  0  0  0  0  0  0  0  0  0  0  0
   22.6902   33.9098   52.4427 C   0  0  0  0  0  0  0  0  0  0  0  0
   22.4955   33.5191   53.7312 N   0  0  0  0  0  0  0  0  0  0  0  0
   21.9735   32.6875   56.3781 C   0  0  0  0  0  0  0  0  0  0  0  0
   19.5309   30.1557   56.5519 N   0  0  0  0  0  0  0  0  0  0  0  0
   18.5857   29.7104   53.9937 C   0  0  0  0  0  0  0  0  0  0  0  0
   17.4365   28.2187   51.2359 H   0  0  0  0  0  0  0  0  0  0  0  0
   17.6771   26.2419   52.7702 H   0  0  0  0  0  0  0  0  0  0  0  0
   18.5036   26.5650   55.0696 H   0  0  0  0  0  0  0  0  0  0  0  0
   19.1299   26.8824   56.9224 H   0  0  0  0  0  0  0  0  0  0  0  0
   19.9541   27.4869   59.1398 H   0  0  0  0  0  0  0  0  0  0  0  0
   19.6125   32.5460   57.3084 H   0  0  0  0  0  0  0  0  0  0  0  0
   19.9894   32.1869   58.9999 H   0  0  0  0  0  0  0  0  0  0  0  0
   22.4188   31.9010   59.6191 H   0  0  0  0  0  0  0  0  0  0  0  0
   24.7181   32.5421   58.9828 H   0  0  0  0  0  0  0  0  0  0  0  0
   25.2392   33.2667   56.6825 H   0  0  0  0  0  0  0  0  0  0  0  0
   25.9939   34.4882   52.6557 H   0  0  0  0  0  0  0  0  0  0  0  0
   24.1064   34.5804   50.9953 H   0  0  0  0  0  0  0  0  0  0  0  0
   21.8358   33.9276   51.7730 H   0  0  0  0  0  0  0  0  0  0  0  0
   21.2018   32.7439   55.5933 H   0  0  0  0  0  0  0  0  0  0  0  0
   18.8407   30.7039   54.3320 H   0  0  0  0  0  0  0  0  0  0  0  0
  1  2  3  0
  2  3  1  0
  3  4  2  0
  4  5  1  0
  5  6  2  0
  6  7  1  0
  7  8  1  0
  8  9  1  0
  9 10  2  0
 10 11  1  0
 11 12  2  0
 11 13  1  0
 13 14  1  0
 14 15  1  0
 15 16  2  0
 16 17  1  0
 17 18  2  0
 18 19  1  0
 19 20  1  0
 20 21  2  0
 21 22  1  0
 22 23  2  0
 23 24  1  0
 24 25  2  0
 19 26  2  0
 13 27  1  0
  7 28  2  0
 28  3  1  0
 27  8  2  0
 26 15  1  0
 25 20  1  0
  4 29  1  0
  5 30  1  0
  6 31  1  0
  9 32  1  0
 10 33  1  0
 14 34  1  0
 14 35  1  0
 16 36  1  0
 17 37  1  0
 18 38  1  0
 22 39  1  0
 23 40  1  0
 24 41  1  0
 26 42  1  0
 28 43  1  0
M  END
$$$$
