
     RDKit          3D

 49 52  0  0  0  0  0  0  0  0999 V2000
   24.3275   35.1935   50.8299 C   0  0  0  0  0  0  0  0  0  0  0  0
   23.9419   34.6480   52.1461 C   0  0  0  0  0  0  0  0  0  0  0  0
   22.6411   34.3595   52.4889 C   0  0  0  0  0  0  0  0  0  0  0  0
   22.3612   33.8469   53.7528 C   0  0  0  0  0  0  0  0  0  0  0  0
   23.3356   33.6118   54.6881 C   0  0  0  0  0  0  0  0  0  0  0  0
   23.1065   33.0777   56.0251 C   0  0  0  0  0  0  0  0  0  0  0  0
   24.1848   32.8858   56.8830 C   0  0  0  0  0  0  0  0  0  0  0  0
   24.0011   32.3843   58.1477 C   0  0  0  0  0  0  0  0  0  0  0  0
   22.7455   32.0531   58.6137 C   0  0  0  0  0  0  0  0  0  0  0  0
   21.6693   32.2319   57.7913 C   0  0  0  0  0  0  0  0  0  0  0  0
   20.2663   31.9145   58.1672 C   0  0  0  0  0  0  0  0  0  0  0  0
   19.9125   30.5386   57.7813 N   0  0  0  0  0  0  0  0  0  0  0  0
   19.4057   30.3143   56.5850 N   0  0  0  0  0  0  0  0  0  0  0  0
   19.0599   29.0852   56.1598 C   0  0  0  0  0  0  0  0  0  0  0  0
   18.5016   28.8946   54.8215 C   0  0  0  0  0  0  0  0  0  0  0  0
   18.3315   29.9933   53.9933 C   0  0  0  0  0  0  0  0  0  0  0  0
   17.8099   29.8451   52.7324 C   0  0  0  0  0  0  0  0  0  0  0  0
   17.6175   31.0271   51.8182 C   0  0  0  0  0  0  0  0  0  0  0  0
   17.4478   28.5961   52.2736 C   0  0  0  0  0  0  0  0  0  0  0  0
   17.6057   27.4940   53.0723 C   0  0  0  0  0  0  0  0  0  0  0  0
   17.2442   26.2506   52.6133 F   0  0  0  0  0  0  0  0  0  0  0  0
   18.1348   27.6700   54.3420 C   0  0  0  0  0  0  0  0  0  0  0  0
   19.2530   28.0536   57.0216 C   0  0  0  0  0  0  0  0  0  0  0  0
   19.7856   28.2524   58.2922 C   0  0  0  0  0  0  0  0  0  0  0  0
   20.1121   29.5377   58.6484 C   0  0  0  0  0  0  0  0  0  0  0  0
   20.6066   29.7693   59.8121 O   0  0  0  0  0  0  0  0  0  0  0  0
   21.8700   32.7361   56.5250 C   0  0  0  0  0  0  0  0  0  0  0  0
   24.6032   33.9101   54.3086 N   0  0  0  0  0  0  0  0  0  0  0  0
   24.9028   34.4051   53.0977 C   0  0  0  0  0  0  0  0  0  0  0  0
   24.3157   34.4171   50.0205 H   0  0  0  0  0  0  0  0  0  0  0  0
   25.3449   35.6139   50.8983 H   0  0  0  0  0  0  0  0  0  0  0  0
   23.6451   36.0016   50.4880 H   0  0  0  0  0  0  0  0  0  0  0  0
   21.8716   34.5429   51.7564 H   0  0  0  0  0  0  0  0  0  0  0  0
   21.3398   33.6220   54.0176 H   0  0  0  0  0  0  0  0  0  0  0  0
   25.1719   33.1345   56.5470 H   0  0  0  0  0  0  0  0  0  0  0  0
   24.8323   32.2239   58.8418 H   0  0  0  0  0  0  0  0  0  0  0  0
   22.5786   31.6572   59.6089 H   0  0  0  0  0  0  0  0  0  0  0  0
   19.5713   32.6331   57.6956 H   0  0  0  0  0  0  0  0  0  0  0  0
   20.1858   31.9468   59.2731 H   0  0  0  0  0  0  0  0  0  0  0  0
   18.6026   30.9719   54.3211 H   0  0  0  0  0  0  0  0  0  0  0  0
   16.5632   31.3919   51.9324 H   0  0  0  0  0  0  0  0  0  0  0  0
   17.6926   30.6457   50.7760 H   0  0  0  0  0  0  0  0  0  0  0  0
   18.3616   31.8197   52.0348 H   0  0  0  0  0  0  0  0  0  0  0  0
   17.0312   28.4789   51.2662 H   0  0  0  0  0  0  0  0  0  0  0  0
   18.2427   26.7620   54.9442 H   0  0  0  0  0  0  0  0  0  0  0  0
   19.0023   27.0361   56.7591 H   0  0  0  0  0  0  0  0  0  0  0  0
   19.9405   27.4328   58.9805 H   0  0  0  0  0  0  0  0  0  0  0  0
   21.0167   32.8862   55.8514 H   0  0  0  0  0  0  0  0  0  0  0  0
   25.9430   34.6238   52.8552 H   0  0  0  0  0  0  0  0  0  0  0  0
  1  2  1  0
  2  3  2  0
  3  4  1  0
  4  5  2  0
  5  6  1  0
  6  7  2  0
  7  8  1  0
  8  9  2  0
  9 10  1  0
 10 11  1  0
 11 12  1  0
 12 13  1  0
 13 14  2  0
 14 15  1  0
 15 16  2  0
 16 17  1  0
 17 18  1  0
 17 19  2  0
 19 20  1  0
 20 21  1  0
 20 22  2  0
 14 23  1  0
 23 24  2  0
 24 25  1  0
 25 26  2  0
 10 27  2  0
  5 28  1  0
 28 29  2  0
 29  2  1  0
 27  6  1  0
 25 12  1  0
 22 15  1  0
  1 30  1  0
  1 31  1  0
  1 32  1  0
  3 33  1  0
  4 34  1  0
  7 35  1  0
  8 36  1  0
  9 37  1  0
 11 38  1  0
 11 39  1  0
 16 40  1  0
 18 41  1  0
 18 42  1  0
 18 43  1  0
 19 44  1  0
 22 45  1  0
 23 46  1  0
 24 47  1  0
 27 48  1  0
 29 49  1  0
M  END
$$$$
