
     RDKit          3D

 49 52  0  0  0  0  0  0  0  0999 V2000
   94.8239   54.7829  270.0725 C   0  0  0  0  0  0  0  0  0  0  0  0
   94.3792   53.5158  269.4365 C   0  0  0  0  0  0  0  0  0  0  0  0
   93.6056   53.4856  268.2950 C   0  0  0  0  0  0  0  0  0  0  0  0
   93.2238   52.2677  267.7500 C   0  0  0  0  0  0  0  0  0  0  0  0
   93.5926   51.0638  268.3126 C   0  0  0  0  0  0  0  0  0  0  0  0
   93.1841   49.8192  267.7283 C   0  0  0  0  0  0  0  0  0  0  0  0
   91.9176   49.5365  267.2813 C   0  0  0  0  0  0  0  0  0  0  0  0
   91.5637   48.2988  266.7150 C   0  0  0  0  0  0  0  0  0  0  0  0
   90.2254   48.0882  266.3194 N   0  0  0  0  0  0  0  0  0  0  0  0
   89.7629   47.3433  265.2182 C   0  0  0  0  0  0  0  0  0  0  0  0
   90.5335   46.8498  264.1929 C   0  0  0  0  0  0  0  0  0  0  0  0
   90.0272   46.1638  263.1346 N   0  0  0  0  0  0  0  0  0  0  0  0
   88.7207   45.9193  263.0173 C   0  0  0  0  0  0  0  0  0  0  0  0
   87.8852   46.3863  264.0100 C   0  0  0  0  0  0  0  0  0  0  0  0
   88.3875   47.0798  265.0831 C   0  0  0  0  0  0  0  0  0  0  0  0
   87.5015   47.5580  266.1074 C   0  0  0  0  0  0  0  0  0  0  0  0
   86.7790   47.9684  266.9385 N   0  0  0  0  0  0  0  0  0  0  0  0
   92.5208   47.3390  266.6069 C   0  0  0  0  0  0  0  0  0  0  0  0
   93.8098   47.5902  267.0473 C   0  0  0  0  0  0  0  0  0  0  0  0
   94.7319   46.6172  266.9234 N   0  0  0  0  0  0  0  0  0  0  0  0
   95.9945   46.8173  267.3370 C   0  0  0  0  0  0  0  0  0  0  0  0
   96.3409   48.0320  267.8919 C   0  0  0  0  0  0  0  0  0  0  0  0
   95.4072   48.9885  268.0065 N   0  0  0  0  0  0  0  0  0  0  0  0
   94.1435   48.8105  267.6009 C   0  0  0  0  0  0  0  0  0  0  0  0
   94.3654   51.1076  269.4526 C   0  0  0  0  0  0  0  0  0  0  0  0
   94.7590   52.3098  270.0153 C   0  0  0  0  0  0  0  0  0  0  0  0
   95.5532   52.3535  271.1880 N   0  0  0  0  0  0  0  0  0  0  0  0
   95.0534   53.0017  272.3754 C   0  0  0  0  0  0  0  0  0  0  0  0
   96.8368   51.7677  271.2124 C   0  0  0  0  0  0  0  0  0  0  0  0
   96.9641   50.5419  271.5831 N   0  0  0  0  0  0  0  0  0  0  0  0
   95.9108   54.7571  270.3322 H   0  0  0  0  0  0  0  0  0  0  0  0
   94.1832   55.1187  270.8897 H   0  0  0  0  0  0  0  0  0  0  0  0
   94.7577   55.5635  269.2577 H   0  0  0  0  0  0  0  0  0  0  0  0
   93.2940   54.4246  267.8207 H   0  0  0  0  0  0  0  0  0  0  0  0
   92.6195   52.2963  266.8573 H   0  0  0  0  0  0  0  0  0  0  0  0
   91.1541   50.2883  267.3631 H   0  0  0  0  0  0  0  0  0  0  0  0
   89.4935   48.5620  266.9468 H   0  0  0  0  0  0  0  0  0  0  0  0
   91.5827   47.0172  264.1917 H   0  0  0  0  0  0  0  0  0  0  0  0
   88.2781   45.3770  262.1906 H   0  0  0  0  0  0  0  0  0  0  0  0
   86.8009   46.2193  263.9734 H   0  0  0  0  0  0  0  0  0  0  0  0
   92.3392   46.3515  266.2093 H   0  0  0  0  0  0  0  0  0  0  0  0
   96.7615   46.0386  267.2457 H   0  0  0  0  0  0  0  0  0  0  0  0
   97.3787   48.2009  268.2336 H   0  0  0  0  0  0  0  0  0  0  0  0
   94.6986   50.2117  269.9585 H   0  0  0  0  0  0  0  0  0  0  0  0
   95.1754   52.3846  273.2861 H   0  0  0  0  0  0  0  0  0  0  0  0
   93.9429   53.1638  272.2589 H   0  0  0  0  0  0  0  0  0  0  0  0
   95.4901   53.9901  272.5652 H   0  0  0  0  0  0  0  0  0  0  0  0
   97.7261   52.3054  270.9319 H   0  0  0  0  0  0  0  0  0  0  0  0
   96.2017   49.9182  271.8750 H   0  0  0  0  0  0  0  0  0  0  0  0
  1  2  1  0
  2  3  2  0
  3  4  1  0
  4  5  2  0
  5  6  1  0
  6  7  2  0
  7  8  1  0
  8  9  1  0
  9 10  1  0
 10 11  2  0
 11 12  1  0
 12 13  2  0
 13 14  1  0
 14 15  2  0
 15 16  1  0
 16 17  3  0
  8 18  2  0
 18 19  1  0
 19 20  2  0
 20 21  1  0
 21 22  2  0
 22 23  1  0
 23 24  2  0
  5 25  1  0
 25 26  2  0
 26 27  1  0
 27 28  1  0
 27 29  1  0
 29 30  2  3
 26  2  1  0
 24  6  1  0
 15 10  1  0
 24 19  1  0
  1 31  1  0
  1 32  1  0
  1 33  1  0
  3 34  1  0
  4 35  1  0
  7 36  1  0
  9 37  1  0
 11 38  1  0
 13 39  1  0
 14 40  1  0
 18 41  1  0
 21 42  1  0
 22 43  1  0
 25 44  1  0
 28 45  1  0
 28 46  1  0
 28 47  1  0
 29 48  1  0
 30 49  1  0
M  END
$$$$
