lig_1a
     RDKit          3D

 37 39  0  0  0  0  0  0  0  0999 V2000
  -40.5651  -45.2426   17.4631 C   0  0  0  0  0  0  0  0  0  0  0  0
  -39.3154  -45.0579   16.8765 C   0  0  0  0  0  0  0  0  0  0  0  0
  -38.2913  -45.1190   19.0612 C   0  0  0  0  0  0  0  0  0  0  0  0
  -39.5457  -45.2917   19.6705 C   0  0  0  0  0  0  0  0  0  0  0  0
  -40.6797  -45.3754   18.8510 C   0  0  0  0  0  0  0  0  0  0  0  0
  -38.1775  -45.0023   17.6751 C   0  0  0  0  0  0  0  0  0  0  0  0
  -38.8910  -44.2680   21.9028 C   0  0  0  0  0  0  0  0  0  0  0  0
  -37.9598  -46.2749   22.5630 C   0  0  0  0  0  0  0  0  0  0  0  0
  -41.1306  -45.3615   21.6253 C   0  0  0  0  0  0  0  0  0  0  0  0
  -39.6726  -45.3897   21.1676 C   0  0  1  0  0  0  0  0  0  0  0  0
  -42.0733  -46.0923   20.6549 C   0  0  0  0  0  0  0  0  0  0  0  0
  -43.5241  -45.8148   21.0820 C   0  0  0  0  0  0  0  0  0  0  0  0
  -41.8679  -47.6141   20.6266 C   0  0  0  0  0  0  0  0  0  0  0  0
  -36.9837  -44.1619   23.5762 C   0  0  0  0  0  0  0  0  0  0  0  0
  -37.8967  -44.9116   22.7214 N   0  0  0  0  0  0  0  0  0  0  0  0
  -38.9712  -46.6068   21.6589 N   0  0  0  0  0  0  0  0  0  0  0  0
  -37.1621  -47.2051   23.1796 N   0  0  0  0  0  4  0  0  0  0  0  0
  -39.0708  -43.0645   21.8078 O   0  0  0  0  0  0  0  0  0  0  0  0
  -41.9525  -45.5714   19.3199 O   0  0  0  0  0  0  0  0  0  0  0  0
  -36.4780  -44.7615   16.8844 Br  0  0  0  0  0  0  0  0  0  0  0  0
  -41.4485  -45.2942   16.8316 H   0  0  0  0  0  0  0  0  0  0  0  0
  -39.2459  -44.9641   15.7961 H   0  0  0  0  0  0  0  0  0  0  0  0
  -37.3967  -45.0704   19.6788 H   0  0  0  0  0  0  0  0  0  0  0  0
  -41.2246  -45.7700   22.6398 H   0  0  0  0  0  0  0  0  0  0  0  0
  -41.4540  -44.3120   21.6836 H   0  0  0  0  0  0  0  0  0  0  0  0
  -44.2014  -46.3253   20.4048 H   0  0  0  0  0  0  0  0  0  0  0  0
  -43.7102  -44.7461   21.0470 H   0  0  0  0  0  0  0  0  0  0  0  0
  -43.6763  -46.1787   22.0932 H   0  0  0  0  0  0  0  0  0  0  0  0
  -42.5649  -48.0590   19.9227 H   0  0  0  0  0  0  0  0  0  0  0  0
  -42.0442  -48.0201   21.6182 H   0  0  0  0  0  0  0  0  0  0  0  0
  -40.8501  -47.8349   20.3190 H   0  0  0  0  0  0  0  0  0  0  0  0
  -37.4346  -44.0331   24.5712 H   0  0  0  0  0  0  0  0  0  0  0  0
  -36.0359  -44.7121   23.6716 H   0  0  0  0  0  0  0  0  0  0  0  0
  -36.7914  -43.1749   23.1303 H   0  0  0  0  0  0  0  0  0  0  0  0
  -39.1736  -47.5686   21.3995 H   0  0  0  0  0  0  0  0  0  0  0  0
  -36.4630  -46.8823   23.8068 H   0  0  0  0  0  0  0  0  0  0  0  0
  -37.3148  -48.1647   22.9746 H   0  0  0  0  0  0  0  0  0  0  0  0
  1  2  2  0
  1  5  1  0
  2  6  1  0
  3  4  1  0
  3  6  2  0
  4  5  2  0
  4 10  1  0
  5 19  1  0
  6 20  1  0
  7 10  1  0
  7 15  1  0
  7 18  2  0
  8 15  1  0
  8 16  1  0
  8 17  2  0
  9 10  1  0
  9 11  1  0
 10 16  1  1
 11 12  1  0
 11 13  1  0
 11 19  1  0
 14 15  1  0
  1 21  1  0
  2 22  1  0
  3 23  1  0
  9 24  1  0
  9 25  1  0
 12 26  1  0
 12 27  1  0
 12 28  1  0
 13 29  1  0
 13 30  1  0
 13 31  1  0
 14 32  1  0
 14 33  1  0
 14 34  1  0
 16 35  1  0
 17 36  1  0
 17 37  1  0
M  CHG  1  17   1
M  END
