lig_67
     RDKit          3D

 48 50  0  0  0  0  0  0  0  0999 V2000
  -38.1986  -44.7279   17.0306 C   0  0  0  0  0  0  0  0  0  0  0  0
  -39.5465  -44.5151   17.3023 C   0  0  0  0  0  0  0  0  0  0  0  0
  -37.9581  -45.7840   19.1932 C   0  0  0  0  0  0  0  0  0  0  0  0
  -32.7541  -44.9904   16.2592 C   0  0  0  0  0  0  0  0  0  0  0  0
  -32.3064  -46.9624   18.0197 C   0  0  0  0  0  0  0  0  0  0  0  0
  -39.3098  -45.5627   19.4988 C   0  0  0  0  0  0  0  0  0  0  0  0
  -37.3934  -45.3552   17.9797 C   0  0  0  0  0  0  0  0  0  0  0  0
  -40.0830  -44.9185   18.5225 C   0  0  0  0  0  0  0  0  0  0  0  0
  -33.7860  -45.5696   16.9685 C   0  0  0  0  0  0  0  0  0  0  0  0
  -31.2723  -46.3866   17.3159 C   0  0  0  0  0  0  0  0  0  0  0  0
  -38.1808  -46.3253   22.6421 C   0  0  0  0  0  0  0  0  0  0  0  0
  -35.1891  -45.1309   16.8037 C   0  0  0  0  0  0  0  0  0  0  0  0
  -40.1407  -44.6357   21.6789 C   0  0  1  0  0  0  0  0  0  0  0  0
  -38.8211  -44.1050   22.2297 C   0  0  1  0  0  0  0  0  0  0  0  0
  -39.8943  -45.9153   20.8681 C   0  0  1  0  0  0  0  0  0  0  0  0
  -41.1730  -46.7582   20.7373 C   0  0  0  0  0  0  0  0  0  0  0  0
  -28.9721  -46.2585   16.8315 C   0  0  0  0  0  0  0  0  0  0  0  0
  -39.0243  -42.8457   23.0550 C   0  0  0  0  0  0  0  0  0  0  0  0
  -33.5779  -46.5628   17.8595 N   0  0  0  0  0  0  0  0  0  0  0  0
  -31.4764  -45.3906   16.4240 N   0  0  0  0  0  0  0  0  0  0  0  0
  -38.9439  -46.7526   21.6370 N   0  0  0  0  0  0  0  0  0  0  0  0
  -37.3490  -47.1276   23.2894 N   0  0  0  0  0  4  0  0  0  0  0  0
  -36.0123  -45.5842   17.8199 N   0  0  0  0  0  0  0  0  0  0  0  0
  -35.4868  -44.4226   15.8509 O   0  0  0  0  0  0  0  0  0  0  0  0
  -38.2113  -45.0641   23.0848 O   0  0  0  0  0  0  0  0  0  0  0  0
  -30.0107  -46.8851   17.5725 O   0  0  0  0  0  0  0  0  0  0  0  0
  -41.3731  -44.6411   18.7585 F   0  0  0  0  0  0  0  0  0  0  0  0
  -40.9542  -44.9286   22.7335 F   0  0  0  0  0  0  0  0  0  0  0  0
  -37.7991  -42.3847   23.4334 F   0  0  0  0  0  0  0  0  0  0  0  0
  -37.8179  -44.3943   16.0727 H   0  0  0  0  0  0  0  0  0  0  0  0
  -40.1765  -44.0186   16.5706 H   0  0  0  0  0  0  0  0  0  0  0  0
  -37.3060  -46.2595   19.9234 H   0  0  0  0  0  0  0  0  0  0  0  0
  -32.9054  -44.1858   15.5493 H   0  0  0  0  0  0  0  0  0  0  0  0
  -32.1499  -47.7612   18.7340 H   0  0  0  0  0  0  0  0  0  0  0  0
  -40.6523  -43.8688   21.0873 H   0  0  0  0  0  0  0  0  0  0  0  0
  -38.1129  -43.8742   21.4259 H   0  0  0  0  0  0  0  0  0  0  0  0
  -41.4954  -47.1343   21.7155 H   0  0  0  0  0  0  0  0  0  0  0  0
  -41.0033  -47.6329   20.0982 H   0  0  0  0  0  0  0  0  0  0  0  0
  -42.0081  -46.1916   20.3159 H   0  0  0  0  0  0  0  0  0  0  0  0
  -28.0331  -46.7385   17.1213 H   0  0  0  0  0  0  0  0  0  0  0  0
  -28.8996  -45.1937   17.0765 H   0  0  0  0  0  0  0  0  0  0  0  0
  -29.1109  -46.4050   15.7552 H   0  0  0  0  0  0  0  0  0  0  0  0
  -39.5953  -43.0404   23.9671 H   0  0  0  0  0  0  0  0  0  0  0  0
  -39.5111  -42.0561   22.4760 H   0  0  0  0  0  0  0  0  0  0  0  0
  -38.8503  -47.7351   21.3924 H   0  0  0  0  0  0  0  0  0  0  0  0
  -37.2607  -48.1041   23.0329 H   0  0  0  0  0  0  0  0  0  0  0  0
  -36.7838  -46.7634   24.0480 H   0  0  0  0  0  0  0  0  0  0  0  0
  -35.5706  -46.1117   18.5706 H   0  0  0  0  0  0  0  0  0  0  0  0
  1  2  2  0
  1  7  1  0
  2  8  1  0
  3  6  1  0
  3  7  2  0
  4  9  2  0
  4 20  1  0
  5 10  1  0
  5 19  2  0
  6  8  2  0
  6 15  1  0
  7 23  1  0
  8 27  1  0
  9 12  1  0
  9 19  1  0
 10 20  2  0
 10 26  1  0
 11 21  1  0
 11 22  2  0
 11 25  1  0
 12 23  1  0
 12 24  2  0
 13 14  1  0
 13 15  1  0
 13 28  1  0
 14 18  1  0
 14 25  1  0
 15 16  1  6
 15 21  1  0
 17 26  1  0
 18 29  1  0
  1 30  1  0
  2 31  1  0
  3 32  1  0
  4 33  1  0
  5 34  1  0
 13 35  1  6
 14 36  1  6
 16 37  1  0
 16 38  1  0
 16 39  1  0
 17 40  1  0
 17 41  1  0
 17 42  1  0
 18 43  1  0
 18 44  1  0
 21 45  1  0
 22 46  1  0
 22 47  1  0
 23 48  1  0
M  CHG  1  22   1
M  END
