lig_13
     RDKit          3D

 48 51  0  0  0  0  0  0  0  0999 V2000
  -33.2652  -45.8563   17.7205 C   0  0  0  0  0  0  0  0  0  0  0  0
  -35.3048  -43.5774   15.6028 C   0  0  0  0  0  0  0  0  0  0  0  0
  -34.2044  -44.2521   16.1255 C   0  0  0  0  0  0  0  0  0  0  0  0
  -36.5843  -43.8109   16.1158 C   0  0  0  0  0  0  0  0  0  0  0  0
  -39.2916  -44.9925   16.9342 C   0  0  0  0  0  0  0  0  0  0  0  0
  -40.5536  -45.1949   17.4992 C   0  0  0  0  0  0  0  0  0  0  0  0
  -35.6691  -45.4106   17.6625 C   0  0  0  0  0  0  0  0  0  0  0  0
  -38.3103  -45.1263   19.1185 C   0  0  0  0  0  0  0  0  0  0  0  0
  -34.3860  -45.1685   17.1591 C   0  0  0  0  0  0  0  0  0  0  0  0
  -36.7949  -44.7298   17.1593 C   0  0  0  0  0  0  0  0  0  0  0  0
  -38.1393  -44.9556   17.7322 C   0  0  0  0  0  0  0  0  0  0  0  0
  -39.5741  -45.3226   19.7058 C   0  0  0  0  0  0  0  0  0  0  0  0
  -40.6942  -45.3723   18.8764 C   0  0  0  0  0  0  0  0  0  0  0  0
  -38.9089  -44.3599   21.9429 C   0  0  0  0  0  0  0  0  0  0  0  0
  -37.9597  -46.3841   22.5163 C   0  0  0  0  0  0  0  0  0  0  0  0
  -41.1683  -45.4225   21.6511 C   0  0  0  0  0  0  0  0  0  0  0  0
  -39.7113  -45.4587   21.1987 C   0  0  1  0  0  0  0  0  0  0  0  0
  -42.1196  -46.1030   20.6517 C   0  0  0  0  0  0  0  0  0  0  0  0
  -43.5659  -45.7880   21.0665 C   0  0  0  0  0  0  0  0  0  0  0  0
  -41.9580  -47.6288   20.5967 C   0  0  0  0  0  0  0  0  0  0  0  0
  -36.8757  -44.2879   23.4548 C   0  0  0  0  0  0  0  0  0  0  0  0
  -32.3619  -46.4147   18.1879 N   0  0  0  0  0  0  0  0  0  0  0  0
  -37.8740  -45.0239   22.6896 N   0  0  0  0  0  0  0  0  0  0  0  0
  -39.0202  -46.6925   21.6603 N   0  0  0  0  0  0  0  0  0  0  0  0
  -37.1414  -47.3306   23.0784 N   0  0  0  0  0  4  0  0  0  0  0  0
  -39.0907  -43.1545   21.8858 O   0  0  0  0  0  0  0  0  0  0  0  0
  -41.9721  -45.5649   19.3259 O   0  0  0  0  0  0  0  0  0  0  0  0
  -35.1681  -42.8587   14.7998 H   0  0  0  0  0  0  0  0  0  0  0  0
  -33.2151  -44.0515   15.7227 H   0  0  0  0  0  0  0  0  0  0  0  0
  -37.4143  -43.2460   15.6963 H   0  0  0  0  0  0  0  0  0  0  0  0
  -39.2254  -44.8722   15.8552 H   0  0  0  0  0  0  0  0  0  0  0  0
  -41.4267  -45.2195   16.8522 H   0  0  0  0  0  0  0  0  0  0  0  0
  -35.7883  -46.1407   18.4626 H   0  0  0  0  0  0  0  0  0  0  0  0
  -37.4379  -45.0828   19.7693 H   0  0  0  0  0  0  0  0  0  0  0  0
  -41.2733  -45.8652   22.6502 H   0  0  0  0  0  0  0  0  0  0  0  0
  -41.4733  -44.3708   21.7473 H   0  0  0  0  0  0  0  0  0  0  0  0
  -44.2797  -46.2135   20.3518 H   0  0  0  0  0  0  0  0  0  0  0  0
  -43.7432  -44.7059   21.0662 H   0  0  0  0  0  0  0  0  0  0  0  0
  -43.7957  -46.1780   22.0636 H   0  0  0  0  0  0  0  0  0  0  0  0
  -42.7238  -48.0740   19.9503 H   0  0  0  0  0  0  0  0  0  0  0  0
  -42.0466  -48.0773   21.5915 H   0  0  0  0  0  0  0  0  0  0  0  0
  -40.9999  -47.9272   20.1619 H   0  0  0  0  0  0  0  0  0  0  0  0
  -37.3716  -43.7540   24.2692 H   0  0  0  0  0  0  0  0  0  0  0  0
  -36.1260  -44.9651   23.8687 H   0  0  0  0  0  0  0  0  0  0  0  0
  -36.3772  -43.5731   22.7933 H   0  0  0  0  0  0  0  0  0  0  0  0
  -39.2557  -47.6489   21.4089 H   0  0  0  0  0  0  0  0  0  0  0  0
  -36.3777  -47.0801   23.7001 H   0  0  0  0  0  0  0  0  0  0  0  0
  -37.2812  -48.3199   22.8878 H   0  0  0  0  0  0  0  0  0  0  0  0
  1  9  1  0
  1 22  3  0
  2  3  2  0
  2  4  1  0
  3  9  1  0
  4 10  2  0
  5  6  2  0
  5 11  1  0
  6 13  1  0
  7  9  2  0
  7 10  1  0
  8 11  2  0
  8 12  1  0
 10 11  1  0
 12 13  2  0
 12 17  1  0
 13 27  1  0
 14 17  1  0
 14 23  1  0
 14 26  2  0
 15 23  1  0
 15 24  1  0
 15 25  2  0
 16 17  1  0
 16 18  1  0
 17 24  1  1
 18 19  1  0
 18 20  1  0
 18 27  1  0
 21 23  1  0
  2 28  1  0
  3 29  1  0
  4 30  1  0
  5 31  1  0
  6 32  1  0
  7 33  1  0
  8 34  1  0
 16 35  1  0
 16 36  1  0
 19 37  1  0
 19 38  1  0
 19 39  1  0
 20 40  1  0
 20 41  1  0
 20 42  1  0
 21 43  1  0
 21 44  1  0
 21 45  1  0
 24 46  1  0
 25 47  1  0
 25 48  1  0
M  CHG  1  25   1
M  END
