lig_05
     RDKit          3D

 39 41  0  0  0  0  0  0  0  0999 V2000
  -40.2181  -45.1963   17.2016 C   0  0  0  0  0  0  0  0  0  0  0  0
  -38.8778  -45.0934   16.8387 C   0  0  0  0  0  0  0  0  0  0  0  0
  -40.5708  -45.4986   18.5168 C   0  0  0  0  0  0  0  0  0  0  0  0
  -38.2434  -45.5906   19.1072 C   0  0  0  0  0  0  0  0  0  0  0  0
  -35.9933  -44.0766   16.6239 C   0  0  0  0  0  0  0  0  0  0  0  0
  -35.4865  -46.0919   17.8440 C   0  0  0  0  0  0  0  0  0  0  0  0
  -33.7112  -44.8910   16.7092 C   0  0  0  0  0  0  0  0  0  0  0  0
  -37.8618  -45.2818   17.7857 C   0  0  0  0  0  0  0  0  0  0  0  0
  -36.4396  -45.1507   17.4150 C   0  0  0  0  0  0  0  0  0  0  0  0
  -39.5924  -45.7182   19.4967 C   0  0  0  0  0  0  0  0  0  0  0  0
  -34.6452  -43.9548   16.2770 C   0  0  0  0  0  0  0  0  0  0  0  0
  -34.1401  -45.9569   17.4940 C   0  0  0  0  0  0  0  0  0  0  0  0
  -38.0378  -46.6230   22.4156 C   0  0  0  0  0  0  0  0  0  0  0  0
  -37.9699  -45.2314   22.9120 C   0  0  0  0  0  0  0  0  0  0  0  0
  -39.9744  -44.7401   21.7887 C   0  0  0  0  0  0  0  0  0  0  0  0
  -39.9644  -46.0257   20.9503 C   0  0  1  0  0  0  0  0  0  0  0  0
  -41.3198  -46.7392   21.1008 C   0  0  0  0  0  0  0  0  0  0  0  0
  -38.9636  -46.9617   21.5216 N   0  0  0  0  0  0  0  0  0  0  0  0
  -37.1520  -47.4731   22.9162 N   0  0  0  0  0  4  0  0  0  0  0  0
  -38.6346  -44.3200   22.0359 O   0  0  0  0  0  0  0  0  0  0  0  0
  -34.1345  -42.6300   15.3050 Cl  0  0  0  0  0  0  0  0  0  0  0  0
  -32.9985  -47.1237   18.0388 Cl  0  0  0  0  0  0  0  0  0  0  0  0
  -40.9924  -45.0365   16.4568 H   0  0  0  0  0  0  0  0  0  0  0  0
  -38.6378  -44.8633   15.8029 H   0  0  0  0  0  0  0  0  0  0  0  0
  -41.6286  -45.5509   18.7554 H   0  0  0  0  0  0  0  0  0  0  0  0
  -37.4620  -45.7157   19.8544 H   0  0  0  0  0  0  0  0  0  0  0  0
  -36.7003  -43.3221   16.2825 H   0  0  0  0  0  0  0  0  0  0  0  0
  -35.7962  -46.9421   18.4497 H   0  0  0  0  0  0  0  0  0  0  0  0
  -32.6633  -44.7912   16.4383 H   0  0  0  0  0  0  0  0  0  0  0  0
  -38.4137  -45.1594   23.9116 H   0  0  0  0  0  0  0  0  0  0  0  0
  -36.9279  -44.9028   22.9859 H   0  0  0  0  0  0  0  0  0  0  0  0
  -40.4939  -43.9282   21.2673 H   0  0  0  0  0  0  0  0  0  0  0  0
  -40.4816  -44.8828   22.7514 H   0  0  0  0  0  0  0  0  0  0  0  0
  -41.4710  -47.0713   22.1351 H   0  0  0  0  0  0  0  0  0  0  0  0
  -41.3715  -47.6323   20.4672 H   0  0  0  0  0  0  0  0  0  0  0  0
  -42.1610  -46.0864   20.8446 H   0  0  0  0  0  0  0  0  0  0  0  0
  -38.9629  -47.9314   21.2161 H   0  0  0  0  0  0  0  0  0  0  0  0
  -36.4668  -47.1726   23.6007 H   0  0  0  0  0  0  0  0  0  0  0  0
  -37.1483  -48.4436   22.6228 H   0  0  0  0  0  0  0  0  0  0  0  0
  1  2  2  0
  1  3  1  0
  2  8  1  0
  3 10  2  0
  4  8  2  0
  4 10  1  0
  5  9  2  0
  5 11  1  0
  6  9  1  0
  6 12  2  0
  7 11  2  0
  7 12  1  0
  8  9  1  0
 10 16  1  0
 11 21  1  0
 12 22  1  0
 13 14  1  0
 13 18  1  0
 13 19  2  0
 14 20  1  0
 15 16  1  0
 15 20  1  0
 16 17  1  6
 16 18  1  0
  1 23  1  0
  2 24  1  0
  3 25  1  0
  4 26  1  0
  5 27  1  0
  6 28  1  0
  7 29  1  0
 14 30  1  0
 14 31  1  0
 15 32  1  0
 15 33  1  0
 17 34  1  0
 17 35  1  0
 17 36  1  0
 18 37  1  0
 19 38  1  0
 19 39  1  0
M  CHG  1  19   1
M  END
