lig_36
     RDKit          3D

 51 54  0  0  0  0  0  0  0  0999 V2000
  -33.3279  -45.7707   17.6348 C   0  0  0  0  0  0  0  0  0  0  0  0
  -32.3998  -46.3455   18.1337 C   0  0  0  0  0  0  0  0  0  0  0  0
  -39.3623  -44.9664   16.9291 C   0  0  0  0  0  0  0  0  0  0  0  0
  -40.6159  -45.1795   17.5073 C   0  0  0  0  0  0  0  0  0  0  0  0
  -35.7353  -45.3707   17.6195 C   0  0  0  0  0  0  0  0  0  0  0  0
  -38.3573  -45.1090   19.1034 C   0  0  0  0  0  0  0  0  0  0  0  0
  -34.3685  -44.1917   16.0671 C   0  0  0  0  0  0  0  0  0  0  0  0
  -36.6394  -43.8034   16.0925 C   0  0  0  0  0  0  0  0  0  0  0  0
  -34.4709  -45.1099   17.0961 C   0  0  0  0  0  0  0  0  0  0  0  0
  -38.2034  -44.9303   17.7156 C   0  0  0  0  0  0  0  0  0  0  0  0
  -36.8686  -44.7049   17.1328 C   0  0  0  0  0  0  0  0  0  0  0  0
  -39.6121  -45.3134   19.7042 C   0  0  0  0  0  0  0  0  0  0  0  0
  -40.7399  -45.3646   18.8857 C   0  0  0  0  0  0  0  0  0  0  0  0
  -38.9218  -44.3592   21.9394 C   0  0  0  0  0  0  0  0  0  0  0  0
  -37.9699  -46.3859   22.4991 C   0  0  0  0  0  0  0  0  0  0  0  0
  -41.1845  -45.4214   21.6644 C   0  0  0  0  0  0  0  0  0  0  0  0
  -39.7320  -45.4554   21.1980 C   0  0  1  0  0  0  0  0  0  0  0  0
  -42.1446  -46.1034   20.6742 C   0  0  0  0  0  0  0  0  0  0  0  0
  -31.2930  -47.0584   18.7654 C   0  0  0  0  0  0  0  0  0  0  0  0
  -43.5870  -45.7897   21.1020 C   0  0  0  0  0  0  0  0  0  0  0  0
  -41.9812  -47.6288   20.6169 C   0  0  0  0  0  0  0  0  0  0  0  0
  -36.8845  -44.2944   23.4477 C   0  0  0  0  0  0  0  0  0  0  0  0
  -35.4271  -43.5344   15.5474 N   0  0  0  0  0  0  0  0  0  0  0  0
  -37.8820  -45.0264   22.6768 N   0  0  0  0  0  0  0  0  0  0  0  0
  -39.0361  -46.6906   21.6487 N   0  0  0  0  0  0  0  0  0  0  0  0
  -37.1488  -47.3352   23.0523 N   0  0  0  0  0  4  0  0  0  0  0  0
  -39.1025  -43.1534   21.8874 O   0  0  0  0  0  0  0  0  0  0  0  0
  -42.0120  -45.5655   19.3470 O   0  0  0  0  0  0  0  0  0  0  0  0
  -39.3070  -44.8405   15.8501 H   0  0  0  0  0  0  0  0  0  0  0  0
  -41.4959  -45.2072   16.8697 H   0  0  0  0  0  0  0  0  0  0  0  0
  -35.8328  -46.1007   18.4221 H   0  0  0  0  0  0  0  0  0  0  0  0
  -37.4775  -45.0666   19.7444 H   0  0  0  0  0  0  0  0  0  0  0  0
  -33.4127  -43.9428   15.6166 H   0  0  0  0  0  0  0  0  0  0  0  0
  -37.4503  -43.2283   15.6535 H   0  0  0  0  0  0  0  0  0  0  0  0
  -41.2792  -45.8642   22.6644 H   0  0  0  0  0  0  0  0  0  0  0  0
  -41.4899  -44.3700   21.7632 H   0  0  0  0  0  0  0  0  0  0  0  0
  -30.3321  -46.6732   18.4135 H   0  0  0  0  0  0  0  0  0  0  0  0
  -31.3281  -46.9448   19.8531 H   0  0  0  0  0  0  0  0  0  0  0  0
  -31.3393  -48.1268   18.5347 H   0  0  0  0  0  0  0  0  0  0  0  0
  -44.3063  -46.2155   20.3930 H   0  0  0  0  0  0  0  0  0  0  0  0
  -43.7647  -44.7078   21.1026 H   0  0  0  0  0  0  0  0  0  0  0  0
  -43.8078  -46.1798   22.1009 H   0  0  0  0  0  0  0  0  0  0  0  0
  -42.7546  -48.0752   19.9804 H   0  0  0  0  0  0  0  0  0  0  0  0
  -42.0559  -48.0778   21.6126 H   0  0  0  0  0  0  0  0  0  0  0  0
  -41.0285  -47.9254   20.1692 H   0  0  0  0  0  0  0  0  0  0  0  0
  -37.3876  -43.7131   24.2246 H   0  0  0  0  0  0  0  0  0  0  0  0
  -36.1744  -44.9792   23.9152 H   0  0  0  0  0  0  0  0  0  0  0  0
  -36.3408  -43.6226   22.7771 H   0  0  0  0  0  0  0  0  0  0  0  0
  -39.2740  -47.6464   21.3970 H   0  0  0  0  0  0  0  0  0  0  0  0
  -36.3793  -47.0878   23.6680 H   0  0  0  0  0  0  0  0  0  0  0  0
  -37.2915  -48.3238   22.8598 H   0  0  0  0  0  0  0  0  0  0  0  0
  1  2  3  0
  1  9  1  0
  2 19  1  0
  3  4  2  0
  3 10  1  0
  4 13  1  0
  5  9  2  0
  5 11  1  0
  6 10  2  0
  6 12  1  0
  7  9  1  0
  7 23  2  0
  8 11  2  0
  8 23  1  0
 10 11  1  0
 12 13  2  0
 12 17  1  0
 13 28  1  0
 14 17  1  0
 14 24  1  0
 14 27  2  0
 15 24  1  0
 15 25  1  0
 15 26  2  0
 16 17  1  0
 16 18  1  0
 17 25  1  1
 18 20  1  0
 18 21  1  0
 18 28  1  0
 22 24  1  0
  3 29  1  0
  4 30  1  0
  5 31  1  0
  6 32  1  0
  7 33  1  0
  8 34  1  0
 16 35  1  0
 16 36  1  0
 19 37  1  0
 19 38  1  0
 19 39  1  0
 20 40  1  0
 20 41  1  0
 20 42  1  0
 21 43  1  0
 21 44  1  0
 21 45  1  0
 22 46  1  0
 22 47  1  0
 22 48  1  0
 25 49  1  0
 26 50  1  0
 26 51  1  0
M  CHG  1  26   1
M  END
