lig_45
     RDKit          3D

 43 45  0  0  0  0  0  0  0  0999 V2000
  -38.2195  -44.8055   17.0642 C   0  0  0  0  0  0  0  0  0  0  0  0
  -39.5671  -44.6062   17.3433 C   0  0  0  0  0  0  0  0  0  0  0  0
  -37.9274  -45.8168   19.2363 C   0  0  0  0  0  0  0  0  0  0  0  0
  -32.8326  -44.7993   16.0919 C   0  0  0  0  0  0  0  0  0  0  0  0
  -39.2882  -45.6183   19.5460 C   0  0  0  0  0  0  0  0  0  0  0  0
  -37.3800  -45.3986   18.0108 C   0  0  0  0  0  0  0  0  0  0  0  0
  -40.0843  -44.9987   18.5703 C   0  0  0  0  0  0  0  0  0  0  0  0
  -33.8186  -45.3799   16.8575 C   0  0  0  0  0  0  0  0  0  0  0  0
  -31.9738  -46.2686   17.3935 C   0  0  0  0  0  0  0  0  0  0  0  0
  -40.0155  -44.5986   21.6655 C   0  0  0  0  0  0  0  0  0  0  0  0
  -39.1273  -44.2021   22.5865 C   0  0  0  0  0  0  0  0  0  0  0  0
  -38.1011  -46.3206   22.6634 C   0  0  0  0  0  0  0  0  0  0  0  0
  -35.2295  -45.0628   16.7765 C   0  0  0  0  0  0  0  0  0  0  0  0
  -39.8536  -45.9118   20.9393 C   0  0  1  0  0  0  0  0  0  0  0  0
  -41.1694  -46.7041   20.8953 C   0  0  0  0  0  0  0  0  0  0  0  0
  -30.8639  -47.0676   17.9426 C   0  0  0  0  0  0  0  0  0  0  0  0
  -39.0931  -42.8220   23.1470 C   0  0  0  0  0  0  0  0  0  0  0  0
  -33.2567  -46.3121   17.6985 N   0  0  0  0  0  0  0  0  0  0  0  0
  -38.9118  -46.7694   21.7052 N   0  0  0  0  0  0  0  0  0  0  0  0
  -37.2460  -47.0957   23.3110 N   0  0  0  0  0  4  0  0  0  0  0  0
  -35.9846  -45.5803   17.8219 N   0  0  0  0  0  0  0  0  0  0  0  0
  -35.6415  -44.3664   15.8554 O   0  0  0  0  0  0  0  0  0  0  0  0
  -31.6442  -45.3616   16.4260 O   0  0  0  0  0  0  0  0  0  0  0  0
  -38.1109  -45.0294   23.0224 O   0  0  0  0  0  0  0  0  0  0  0  0
  -41.3720  -44.7195   18.8185 F   0  0  0  0  0  0  0  0  0  0  0  0
  -29.6731  -46.7122   17.3861 F   0  0  0  0  0  0  0  0  0  0  0  0
  -37.8091  -42.4454   23.4058 F   0  0  0  0  0  0  0  0  0  0  0  0
  -37.8708  -44.4795   16.0927 H   0  0  0  0  0  0  0  0  0  0  0  0
  -40.2080  -44.1230   16.6125 H   0  0  0  0  0  0  0  0  0  0  0  0
  -37.2604  -46.2602   19.9725 H   0  0  0  0  0  0  0  0  0  0  0  0
  -32.8113  -44.0353   15.3295 H   0  0  0  0  0  0  0  0  0  0  0  0
  -40.8114  -43.9270   21.3525 H   0  0  0  0  0  0  0  0  0  0  0  0
  -41.4770  -47.0147   21.9006 H   0  0  0  0  0  0  0  0  0  0  0  0
  -41.0530  -47.6162   20.2969 H   0  0  0  0  0  0  0  0  0  0  0  0
  -41.9996  -46.1334   20.4680 H   0  0  0  0  0  0  0  0  0  0  0  0
  -31.0203  -48.1300   17.7385 H   0  0  0  0  0  0  0  0  0  0  0  0
  -30.7824  -46.9210   19.0222 H   0  0  0  0  0  0  0  0  0  0  0  0
  -39.6519  -42.7678   24.0836 H   0  0  0  0  0  0  0  0  0  0  0  0
  -39.5018  -42.0916   22.4413 H   0  0  0  0  0  0  0  0  0  0  0  0
  -38.8603  -47.7628   21.4962 H   0  0  0  0  0  0  0  0  0  0  0  0
  -37.1824  -48.0855   23.1030 H   0  0  0  0  0  0  0  0  0  0  0  0
  -36.6478  -46.7015   24.0276 H   0  0  0  0  0  0  0  0  0  0  0  0
  -35.4985  -46.0857   18.5602 H   0  0  0  0  0  0  0  0  0  0  0  0
  1  2  2  0
  1  6  1  0
  2  7  1  0
  3  5  1  0
  3  6  2  0
  4  8  2  0
  4 23  1  0
  5  7  2  0
  5 14  1  0
  6 21  1  0
  7 25  1  0
  8 13  1  0
  8 18  1  0
  9 16  1  0
  9 18  2  0
  9 23  1  0
 10 11  2  0
 10 14  1  0
 11 17  1  0
 11 24  1  0
 12 19  1  0
 12 20  2  0
 12 24  1  0
 13 21  1  0
 13 22  2  0
 14 15  1  6
 14 19  1  0
 16 26  1  0
 17 27  1  0
  1 28  1  0
  2 29  1  0
  3 30  1  0
  4 31  1  0
 10 32  1  0
 15 33  1  0
 15 34  1  0
 15 35  1  0
 16 36  1  0
 16 37  1  0
 17 38  1  0
 17 39  1  0
 19 40  1  0
 20 41  1  0
 20 42  1  0
 21 43  1  0
M  CHG  1  20   1
M  END
