lig_06
     RDKit          3D

 42 45  0  0  0  0  0  0  0  0999 V2000
  -40.1582  -45.2247   17.3301 C   0  0  0  0  0  0  0  0  0  0  0  0
  -38.8476  -45.0908   16.8719 C   0  0  0  0  0  0  0  0  0  0  0  0
  -40.4148  -45.5005   18.6747 C   0  0  0  0  0  0  0  0  0  0  0  0
  -39.0695  -43.4695   21.8948 C   0  0  0  0  0  0  0  0  0  0  0  0
  -38.0475  -45.5261   19.0957 C   0  0  0  0  0  0  0  0  0  0  0  0
  -35.9935  -43.9743   16.5045 C   0  0  0  0  0  0  0  0  0  0  0  0
  -35.3738  -45.9720   17.7035 C   0  0  0  0  0  0  0  0  0  0  0  0
  -33.6773  -44.6924   16.5416 C   0  0  0  0  0  0  0  0  0  0  0  0
  -38.1683  -43.0249   22.8811 C   0  0  0  0  0  0  0  0  0  0  0  0
  -37.7656  -45.2353   17.7493 C   0  0  0  0  0  0  0  0  0  0  0  0
  -36.3726  -45.0662   17.3035 C   0  0  0  0  0  0  0  0  0  0  0  0
  -39.3631  -45.6557   19.5850 C   0  0  0  0  0  0  0  0  0  0  0  0
  -34.6591  -43.7948   16.1324 C   0  0  0  0  0  0  0  0  0  0  0  0
  -34.0436  -45.7796   17.3281 C   0  0  0  0  0  0  0  0  0  0  0  0
  -38.9489  -44.8434   21.9051 C   0  0  0  0  0  0  0  0  0  0  0  0
  -38.0031  -47.4752   22.3314 C   0  0  0  0  0  0  0  0  0  0  0  0
  -37.6222  -46.4306   23.3018 C   0  0  0  0  0  0  0  0  0  0  0  0
  -39.5657  -45.9324   21.0767 C   0  0  1  0  0  0  0  0  0  0  0  0
  -41.0298  -46.1329   21.5004 C   0  0  0  0  0  0  0  0  0  0  0  0
  -37.5357  -44.0289   23.4917 N   0  0  0  0  0  0  0  0  0  0  0  0
  -38.0401  -45.1146   22.8842 N   0  0  0  0  0  0  0  0  0  0  0  0
  -38.8828  -47.2312   21.3602 N   0  0  0  0  0  0  0  0  0  0  0  0
  -37.4123  -48.6490   22.5098 N   0  0  0  0  0  4  0  0  0  0  0  0
  -34.2217  -42.4379   15.1689 Cl  0  0  0  0  0  0  0  0  0  0  0  0
  -32.8446  -46.8946   17.8559 Cl  0  0  0  0  0  0  0  0  0  0  0  0
  -40.9850  -45.1068   16.6352 H   0  0  0  0  0  0  0  0  0  0  0  0
  -38.6846  -44.8741   15.8185 H   0  0  0  0  0  0  0  0  0  0  0  0
  -41.4516  -45.5836   18.9854 H   0  0  0  0  0  0  0  0  0  0  0  0
  -39.7000  -42.8763   21.2486 H   0  0  0  0  0  0  0  0  0  0  0  0
  -37.2189  -45.6312   19.7964 H   0  0  0  0  0  0  0  0  0  0  0  0
  -36.7385  -43.2462   16.1884 H   0  0  0  0  0  0  0  0  0  0  0  0
  -35.6344  -46.8326   18.3176 H   0  0  0  0  0  0  0  0  0  0  0  0
  -32.6397  -44.5444   16.2548 H   0  0  0  0  0  0  0  0  0  0  0  0
  -37.9431  -42.0122   23.1803 H   0  0  0  0  0  0  0  0  0  0  0  0
  -38.0888  -46.6234   24.2737 H   0  0  0  0  0  0  0  0  0  0  0  0
  -36.5336  -46.4012   23.4256 H   0  0  0  0  0  0  0  0  0  0  0  0
  -41.1022  -46.3779   22.5665 H   0  0  0  0  0  0  0  0  0  0  0  0
  -41.4949  -46.9610   20.9521 H   0  0  0  0  0  0  0  0  0  0  0  0
  -41.6316  -45.2318   21.3323 H   0  0  0  0  0  0  0  0  0  0  0  0
  -39.0948  -48.0176   20.7508 H   0  0  0  0  0  0  0  0  0  0  0  0
  -36.7472  -48.7827   23.2641 H   0  0  0  0  0  0  0  0  0  0  0  0
  -37.6101  -49.4276   21.8925 H   0  0  0  0  0  0  0  0  0  0  0  0
  1  2  2  0
  1  3  1  0
  2 10  1  0
  3 12  2  0
  4  9  1  0
  4 15  2  0
  5 10  2  0
  5 12  1  0
  6 11  2  0
  6 13  1  0
  7 11  1  0
  7 14  2  0
  8 13  2  0
  8 14  1  0
  9 20  2  0
 10 11  1  0
 12 18  1  0
 13 24  1  0
 14 25  1  0
 15 18  1  0
 15 21  1  0
 16 17  1  0
 16 22  1  0
 16 23  2  0
 17 21  1  0
 18 19  1  6
 18 22  1  0
 20 21  1  0
  1 26  1  0
  2 27  1  0
  3 28  1  0
  4 29  1  0
  5 30  1  0
  6 31  1  0
  7 32  1  0
  8 33  1  0
  9 34  1  0
 17 35  1  0
 17 36  1  0
 19 37  1  0
 19 38  1  0
 19 39  1  0
 22 40  1  0
 23 41  1  0
 23 42  1  0
M  CHG  1  23   1
M  END
